<additional>
	<busStop id="busStop_-1489_0_12" lane="-1489_0" startPos="28.25" endpos="33.25" friendlyPos="1"/>
	<busStop id="busStop_-1540_0_17" lane="-1540_0" startPos="56.88" endpos="61.88" friendlyPos="1"/>
	<busStop id="busStop_-17309_0_18" lane="-17309_0" startPos="21.87" endpos="26.87" friendlyPos="1"/>
	<busStop id="busStop_-16503_0_19" lane="-16503_0" startPos="101.62" endpos="106.62" friendlyPos="1"/>
	<busStop id="busStop_-16532_1_21" lane="-16532_1" startPos="22.56" endpos="27.56" friendlyPos="1"/>
	<busStop id="busStop_-16542_0_22" lane="-16542_0" startPos="68.43" endpos="73.43" friendlyPos="1"/>
	<busStop id="busStop_-16560_0_23" lane="-16560_0" startPos="65.55" endpos="70.55" friendlyPos="1"/>
	<busStop id="busStop_-17159_0_24" lane="-17159_0" startPos="38.94" endpos="43.94" friendlyPos="1"/>
	<busStop id="busStop_-17162_0_25" lane="-17162_0" startPos="2.61" endpos="7.61" friendlyPos="1"/>
	<busStop id="busStop_-17163_0_26" lane="-17163_0" startPos="47.89" endpos="52.89" friendlyPos="1"/>
	<busStop id="busStop_-16616_0_27" lane="-16616_0" startPos="59.18" endpos="64.18" friendlyPos="1"/>
	<busStop id="busStop_-16625_0_28" lane="-16625_0" startPos="67.76" endpos="72.76" friendlyPos="1"/>
	<busStop id="busStop_-16735_0_38" lane="-16735_0" startPos="48.74" endpos="53.74" friendlyPos="1"/>
	<busStop id="busStop_-27173_0_41" lane="-27173_0" startPos="80.0" endpos="85.0" friendlyPos="1"/>
	<busStop id="busStop_-30948_0_43" lane="-30948_0" startPos="55.84" endpos="60.84" friendlyPos="1"/>
	<busStop id="busStop_gneE4_0_44" lane="gneE4_0" startPos="3.98" endpos="8.98" friendlyPos="1"/>
	<busStop id="busStop_29683_0_72" lane="29683_0" startPos="209.7" endpos="214.7" friendlyPos="1"/>
	<busStop id="busStop_-29618_0_74" lane="-29618_0" startPos="111.92" endpos="116.92" friendlyPos="1"/>
	<busStop id="busStop_-29618_0_75" lane="-29618_0" startPos="256.6" endpos="261.6" friendlyPos="1"/>
	<busStop id="busStop_29604_0_81" lane="29604_0" startPos="79.54" endpos="84.54" friendlyPos="1"/>
	<busStop id="busStop_29604_0_90" lane="29604_0" startPos="188.64" endpos="193.64" friendlyPos="1"/>
	<busStop id="busStop_-29660_0_95" lane="-29660_0" startPos="0.0" endpos="0.0" friendlyPos="1"/>
	<busStop id="busStop_-29302_0_100" lane="-29302_0" startPos="125.85" endpos="130.85" friendlyPos="1"/>
	<busStop id="busStop_29031_0_103" lane="29031_0" startPos="9.14" endpos="14.14" friendlyPos="1"/>
	<busStop id="busStop_27643_0_104" lane="27643_0" startPos="154.12" endpos="159.12" friendlyPos="1"/>
	<busStop id="busStop_16997_0_105" lane="16997_0" startPos="72.3" endpos="77.3" friendlyPos="1"/>
	<busStop id="busStop_16797_0_106" lane="16797_0" startPos="91.31" endpos="96.31" friendlyPos="1"/>
	<busStop id="busStop_17250_0_107" lane="17250_0" startPos="38.29" endpos="43.29" friendlyPos="1"/>
	<busStop id="busStop_16794_0_108" lane="16794_0" startPos="48.52" endpos="53.52" friendlyPos="1"/>
	<busStop id="busStop_16789_0_110" lane="16789_0" startPos="128.72" endpos="133.72" friendlyPos="1"/>
	<busStop id="busStop_17114_0_111" lane="17114_0" startPos="91.93" endpos="96.93" friendlyPos="1"/>
	<busStop id="busStop_29924_0_112" lane="29924_0" startPos="41.72" endpos="46.72" friendlyPos="1"/>
	<busStop id="busStop_27303_0_113" lane="27303_0" startPos="14.76" endpos="19.76" friendlyPos="1"/>
	<busStop id="busStop_-27439_0_115" lane="-27439_0" startPos="1.93" endpos="6.93" friendlyPos="1"/>
	<busStop id="busStop_-30953_0_116" lane="-30953_0" startPos="418.49" endpos="423.49" friendlyPos="1"/>
	<busStop id="busStop_-30953_0_118" lane="-30953_0" startPos="294.84" endpos="299.84" friendlyPos="1"/>
	<busStop id="busStop_16735_0_124" lane="16735_0" startPos="47.03" endpos="52.03" friendlyPos="1"/>
	<busStop id="busStop_-26890_0_125" lane="-26890_0" startPos="76.27" endpos="81.27" friendlyPos="1"/>
	<busStop id="busStop_-26942_0_127" lane="-26942_0" startPos="105.33" endpos="110.33" friendlyPos="1"/>
	<busStop id="busStop_-26942_0_128" lane="-26942_0" startPos="211.25" endpos="216.25" friendlyPos="1"/>
	<busStop id="busStop_-26959_0_129" lane="-26959_0" startPos="77.61" endpos="82.61" friendlyPos="1"/>
	<busStop id="busStop_-27020_0_130" lane="-27020_0" startPos="213.46" endpos="218.46" friendlyPos="1"/>
	<busStop id="busStop_17296_0_132" lane="17296_0" startPos="73.35" endpos="78.35" friendlyPos="1"/>
	<busStop id="busStop_16933_0_133" lane="16933_0" startPos="169.62" endpos="174.62" friendlyPos="1"/>
	<busStop id="busStop_17258_0_134" lane="17258_0" startPos="99.86" endpos="104.86" friendlyPos="1"/>
	<busStop id="busStop_17116_0_136" lane="17116_0" startPos="11.68" endpos="16.68" friendlyPos="1"/>
	<busStop id="busStop_17160_0_138" lane="17160_0" startPos="7.67" endpos="12.67" friendlyPos="1"/>
	<busStop id="busStop_16552_0_139" lane="16552_0" startPos="69.56" endpos="74.56" friendlyPos="1"/>
	<busStop id="busStop_16542_0_140" lane="16542_0" startPos="76.17" endpos="81.17" friendlyPos="1"/>
	<busStop id="busStop_17166_0_141" lane="17166_0" startPos="26.15" endpos="31.15" friendlyPos="1"/>
	<busStop id="busStop_17301_0_142" lane="17301_0" startPos="72.98" endpos="77.98" friendlyPos="1"/>
	<busStop id="busStop_16517_0_143" lane="16517_0" startPos="0.53" endpos="5.53" friendlyPos="1"/>
	<busStop id="busStop_16513_0_144" lane="16513_0" startPos="52.82" endpos="57.82" friendlyPos="1"/>
	<busStop id="busStop_16503_0_145" lane="16503_0" startPos="83.65" endpos="88.65" friendlyPos="1"/>
	<busStop id="busStop_29604_0_146" lane="29604_0" startPos="201.86" endpos="206.86" friendlyPos="1"/>
	<busStop id="busStop_29478_0_148" lane="29478_0" startPos="58.57" endpos="63.57" friendlyPos="1"/>
	<busStop id="busStop_31730_0_150" lane="31730_0" startPos="109.08" endpos="114.08" friendlyPos="1"/>
	<busStop id="busStop_31186_0_151" lane="31186_0" startPos="536.02" endpos="541.02" friendlyPos="1"/>
	<busStop id="busStop_29290_0_152" lane="29290_0" startPos="81.82" endpos="86.82" friendlyPos="1"/>
	<busStop id="busStop_29622_0_155" lane="29622_0" startPos="73.56" endpos="78.56" friendlyPos="1"/>
	<busStop id="busStop_29581_0_157" lane="29581_0" startPos="7.58" endpos="12.58" friendlyPos="1"/>
	<busStop id="busStop_29641_0_158" lane="29641_0" startPos="133.77" endpos="138.77" friendlyPos="1"/>
	<busStop id="busStop_-29571_0_161" lane="-29571_0" startPos="75.34" endpos="80.34" friendlyPos="1"/>
	<busStop id="busStop_17310_0_163" lane="17310_0" startPos="78.05" endpos="83.05" friendlyPos="1"/>
	<busStop id="busStop_gneE34_0_164" lane="gneE34_0" startPos="1.54" endpos="6.54" friendlyPos="1"/>
	<busStop id="busStop_1524_0_165" lane="1524_0" startPos="19.06" endpos="24.06" friendlyPos="1"/>
	<busStop id="busStop_1489_0_166" lane="1489_0" startPos="108.38" endpos="113.38" friendlyPos="1"/>
	<busStop id="busStop_1480_0_167" lane="1480_0" startPos="117.19" endpos="122.19" friendlyPos="1"/>
	<busStop id="busStop_64_0_168" lane="64_0" startPos="64.14" endpos="69.14" friendlyPos="1"/>
	<busStop id="busStop_-600_0_169" lane="-600_0" startPos="70.95" endpos="75.95" friendlyPos="1"/>
	<busStop id="busStop_327_0_170" lane="327_0" startPos="8.73" endpos="13.73" friendlyPos="1"/>
	<busStop id="busStop_-2716_0_171" lane="-2716_0" startPos="0.0" endpos="4.47" friendlyPos="1"/>
	<busStop id="busStop_2483_1_172" lane="2483_1" startPos="112.37" endpos="117.37" friendlyPos="1"/>
	<busStop id="busStop_-1481_0_173" lane="-1481_0" startPos="148.01" endpos="153.01" friendlyPos="1"/>
	<busStop id="busStop_-1488_0_175" lane="-1488_0" startPos="128.91" endpos="133.91" friendlyPos="1"/>
	<busStop id="busStop_-1496_0_176" lane="-1496_0" startPos="92.74" endpos="97.74" friendlyPos="1"/>
	<busStop id="busStop_-1502_0_177" lane="-1502_0" startPos="102.69" endpos="107.69" friendlyPos="1"/>
	<busStop id="busStop_-1507_0_178" lane="-1507_0" startPos="186.73" endpos="191.73" friendlyPos="1"/>
	<busStop id="busStop_-1514_0_179" lane="-1514_0" startPos="97.3" endpos="102.3" friendlyPos="1"/>
	<busStop id="busStop_-1979_0_181" lane="-1979_0" startPos="46.84" endpos="51.84" friendlyPos="1"/>
	<busStop id="busStop_-16488_0_183" lane="-16488_0" startPos="106.11" endpos="111.11" friendlyPos="1"/>
	<busStop id="busStop_-16498_0_184" lane="-16498_0" startPos="43.79" endpos="48.79" friendlyPos="1"/>
	<busStop id="busStop_25008_0_185" lane="25008_0" startPos="56.06" endpos="61.06" friendlyPos="1"/>
	<busStop id="busStop_9788_0_188" lane="9788_0" startPos="43.94" endpos="48.94" friendlyPos="1"/>
	<busStop id="busStop_9708_0_189" lane="9708_0" startPos="10.19" endpos="15.19" friendlyPos="1"/>
	<busStop id="busStop_9629_0_190" lane="9629_0" startPos="68.97" endpos="73.97" friendlyPos="1"/>
	<busStop id="busStop_9528_0_191" lane="9528_0" startPos="72.13" endpos="77.13" friendlyPos="1"/>
	<busStop id="busStop_9465_0_192" lane="9465_0" startPos="74.35" endpos="79.35" friendlyPos="1"/>
	<busStop id="busStop_9425_0_193" lane="9425_0" startPos="172.54" endpos="177.54" friendlyPos="1"/>
	<busStop id="busStop_14184_0_194" lane="14184_0" startPos="75.52" endpos="80.52" friendlyPos="1"/>
	<busStop id="busStop_9285_0_195" lane="9285_0" startPos="107.74" endpos="112.74" friendlyPos="1"/>
	<busStop id="busStop_8988_0_211" lane="8988_0" startPos="40.58" endpos="45.58" friendlyPos="1"/>
	<busStop id="busStop_8962_0_212" lane="8962_0" startPos="207.94" endpos="212.94" friendlyPos="1"/>
	<busStop id="busStop_7174_0_215" lane="7174_0" startPos="100.67" endpos="105.67" friendlyPos="1"/>
	<busStop id="busStop_7099_0_216" lane="7099_0" startPos="103.94" endpos="108.94" friendlyPos="1"/>
	<busStop id="busStop_-11176_0_217" lane="-11176_0" startPos="7.63" endpos="12.63" friendlyPos="1"/>
	<busStop id="busStop_9503_0_219" lane="9503_0" startPos="17.29" endpos="22.29" friendlyPos="1"/>
	<busStop id="busStop_-9473_0_220" lane="-9473_0" startPos="0.0" endpos="1.13" friendlyPos="1"/>
	<busStop id="busStop_2113_0_221" lane="2113_0" startPos="61.36" endpos="66.36" friendlyPos="1"/>
	<busStop id="busStop_-1996_0_222" lane="-1996_0" startPos="37.3" endpos="42.3" friendlyPos="1"/>
	<busStop id="busStop_-2195_0_223" lane="-2195_0" startPos="143.15" endpos="148.15" friendlyPos="1"/>
	<busStop id="busStop_-2114_0_225" lane="-2114_0" startPos="461.87" endpos="466.87" friendlyPos="1"/>
	<busStop id="busStop_-1263_0_226" lane="-1263_0" startPos="69.79" endpos="74.79" friendlyPos="1"/>
	<busStop id="busStop_-1270_0_227" lane="-1270_0" startPos="23.51" endpos="28.51" friendlyPos="1"/>
	<busStop id="busStop_-1296_0_228" lane="-1296_0" startPos="136.33" endpos="141.33" friendlyPos="1"/>
	<busStop id="busStop_-1301_0_229" lane="-1301_0" startPos="1.51" endpos="6.51" friendlyPos="1"/>
	<busStop id="busStop_7042_0_232" lane="7042_0" startPos="113.4" endpos="118.4" friendlyPos="1"/>
	<busStop id="busStop_-7049_0_233" lane="-7049_0" startPos="108.64" endpos="113.64" friendlyPos="1"/>
	<busStop id="busStop_-7099_0_234" lane="-7099_0" startPos="106.91" endpos="111.91" friendlyPos="1"/>
	<busStop id="busStop_-7255_0_236" lane="-7255_0" startPos="96.29" endpos="101.29" friendlyPos="1"/>
	<busStop id="busStop_-8835_0_237" lane="-8835_0" startPos="97.02" endpos="102.02" friendlyPos="1"/>
	<busStop id="busStop_-8962_0_238" lane="-8962_0" startPos="197.01" endpos="202.01" friendlyPos="1"/>
	<busStop id="busStop_-9211_0_253" lane="-9211_0" startPos="78.4" endpos="83.4" friendlyPos="1"/>
	<busStop id="busStop_-14311_0_254" lane="-14311_0" startPos="68.21" endpos="73.21" friendlyPos="1"/>
	<busStop id="busStop_-9285_0_255" lane="-9285_0" startPos="109.84" endpos="114.84" friendlyPos="1"/>
	<busStop id="busStop_-14183_0_256" lane="-14183_0" startPos="72.94" endpos="77.94" friendlyPos="1"/>
	<busStop id="busStop_-9425_0_257" lane="-9425_0" startPos="162.6" endpos="167.6" friendlyPos="1"/>
	<busStop id="busStop_-9465_0_258" lane="-9465_0" startPos="62.04" endpos="67.04" friendlyPos="1"/>
	<busStop id="busStop_-9486_0_259" lane="-9486_0" startPos="65.97" endpos="70.97" friendlyPos="1"/>
	<busStop id="busStop_-9528_0_260" lane="-9528_0" startPos="63.31" endpos="68.31" friendlyPos="1"/>
	<busStop id="busStop_-9589_0_261" lane="-9589_0" startPos="93.9" endpos="98.9" friendlyPos="1"/>
	<busStop id="busStop_-9589_0_262" lane="-9589_0" startPos="201.9" endpos="206.9" friendlyPos="1"/>
	<busStop id="busStop_-9666_0_263" lane="-9666_0" startPos="25.28" endpos="30.28" friendlyPos="1"/>
	<busStop id="busStop_-9748_0_264" lane="-9748_0" startPos="33.39" endpos="38.39" friendlyPos="1"/>
	<busStop id="busStop_-24816_0_266" lane="-24816_0" startPos="27.75" endpos="32.75" friendlyPos="1"/>
	<busStop id="busStop_17076_1_269" lane="17076_1" startPos="26.62" endpos="31.62" friendlyPos="1"/>
	<busStop id="busStop_16492_0_270" lane="16492_0" startPos="138.0" endpos="143.0" friendlyPos="1"/>
	<busStop id="busStop_17077_0_271" lane="17077_0" startPos="45.37" endpos="50.37" friendlyPos="1"/>
	<busStop id="busStop_17078_1_272" lane="17078_1" startPos="51.67" endpos="56.67" friendlyPos="1"/>
	<busStop id="busStop_1979_0_273" lane="1979_0" startPos="66.96" endpos="71.96" friendlyPos="1"/>
	<busStop id="busStop_2220_0_274" lane="2220_0" startPos="173.09" endpos="178.09" friendlyPos="1"/>
	<busStop id="busStop_1519_0_275" lane="1519_0" startPos="93.85" endpos="98.85" friendlyPos="1"/>
	<busStop id="busStop_1514_0_276" lane="1514_0" startPos="80.63" endpos="85.63" friendlyPos="1"/>
	<busStop id="busStop_1507_0_277" lane="1507_0" startPos="205.31" endpos="210.31" friendlyPos="1"/>
	<busStop id="busStop_1502_0_278" lane="1502_0" startPos="110.4" endpos="115.4" friendlyPos="1"/>
	<busStop id="busStop_1496_1_279" lane="1496_1" startPos="104.32" endpos="109.32" friendlyPos="1"/>
	<busStop id="busStop_2004_0_280" lane="2004_0" startPos="45.15" endpos="50.15" friendlyPos="1"/>
	<busStop id="busStop_1488_0_281" lane="1488_0" startPos="76.44" endpos="81.44" friendlyPos="1"/>
	<busStop id="busStop_2542_0_282" lane="2542_0" startPos="91.16" endpos="96.16" friendlyPos="1"/>
	<busStop id="busStop_9455_0_284" lane="9455_0" startPos="104.35" endpos="109.35" friendlyPos="1"/>
	<busStop id="busStop_13630_0_285" lane="13630_0" startPos="242.02" endpos="247.02" friendlyPos="1"/>
	<busStop id="busStop_-9383_0_286" lane="-9383_0" startPos="54.33" endpos="59.33" friendlyPos="1"/>
	<busStop id="busStop_-9385_0_287" lane="-9385_0" startPos="55.7" endpos="60.7" friendlyPos="1"/>
	<busStop id="busStop_11176_0_288" lane="11176_0" startPos="107.57" endpos="112.57" friendlyPos="1"/>
	<busStop id="busStop_-11176_0_289" lane="-11176_0" startPos="99.65" endpos="104.65" friendlyPos="1"/>
	<busStop id="busStop_-7042_0_290" lane="-7042_0" startPos="105.82" endpos="110.82" friendlyPos="1"/>
	<busStop id="busStop_-14249_0_291" lane="-14249_0" startPos="42.86" endpos="47.86" friendlyPos="1"/>
	<busStop id="busStop_-7275_0_294" lane="-7275_0" startPos="106.97" endpos="111.97" friendlyPos="1"/>
	<busStop id="busStop_1319_0_295" lane="1319_0" startPos="42.96" endpos="47.96" friendlyPos="1"/>
	<busStop id="busStop_1318_0_296" lane="1318_0" startPos="77.03" endpos="82.03" friendlyPos="1"/>
	<busStop id="busStop_1310_0_297" lane="1310_0" startPos="0.0" endpos="0.0" friendlyPos="1"/>
	<busStop id="busStop_1310_0_298" lane="1310_0" startPos="101.28" endpos="106.28" friendlyPos="1"/>
	<busStop id="busStop_1613_0_299" lane="1613_0" startPos="248.57" endpos="253.57" friendlyPos="1"/>
	<busStop id="busStop_1296_0_302" lane="1296_0" startPos="128.28" endpos="133.28" friendlyPos="1"/>
	<busStop id="busStop_1283_0_303" lane="1283_0" startPos="65.67" endpos="70.67" friendlyPos="1"/>
	<busStop id="busStop_2095_0_304" lane="2095_0" startPos="14.88" endpos="19.88" friendlyPos="1"/>
	<busStop id="busStop_1256_0_305" lane="1256_0" startPos="296.98" endpos="301.98" friendlyPos="1"/>
	<busStop id="busStop_1254_0_306" lane="1254_0" startPos="77.47" endpos="82.47" friendlyPos="1"/>
	<busStop id="busStop_1252_0_307" lane="1252_0" startPos="159.9" endpos="164.9" friendlyPos="1"/>
	<busStop id="busStop_1249_0_308" lane="1249_0" startPos="28.56" endpos="33.56" friendlyPos="1"/>
	<busStop id="busStop_1247_0_309" lane="1247_0" startPos="72.94" endpos="77.94" friendlyPos="1"/>
	<busStop id="busStop_1244_0_310" lane="1244_0" startPos="456.52" endpos="461.52" friendlyPos="1"/>
	<busStop id="busStop_9441_0_311" lane="9441_0" startPos="45.59" endpos="50.59" friendlyPos="1"/>
	<busStop id="busStop_-17075_0_312" lane="-17075_0" startPos="64.19" endpos="69.19" friendlyPos="1"/>
	<busStop id="busStop_-17073_1_313" lane="-17073_1" startPos="10.78" endpos="15.78" friendlyPos="1"/>
	<busStop id="busStop_-25211_0_315" lane="-25211_0" startPos="68.86" endpos="73.86" friendlyPos="1"/>
	<busStop id="busStop_-25278_0_316" lane="-25278_0" startPos="72.73" endpos="77.73" friendlyPos="1"/>
	<busStop id="busStop_25376_0_318" lane="25376_0" startPos="2.06" endpos="7.06" friendlyPos="1"/>
	<busStop id="busStop_-25483_1_319" lane="-25483_1" startPos="69.46" endpos="74.46" friendlyPos="1"/>
	<busStop id="busStop_-31558_1_320" lane="-31558_1" startPos="28.98" endpos="33.98" friendlyPos="1"/>
	<busStop id="busStop_-16561_0_321" lane="-16561_0" startPos="128.89" endpos="133.89" friendlyPos="1"/>
	<busStop id="busStop_-16565_0_322" lane="-16565_0" startPos="120.57" endpos="125.57" friendlyPos="1"/>
	<busStop id="busStop_16579_0_323" lane="16579_0" startPos="85.73" endpos="90.73" friendlyPos="1"/>
	<busStop id="busStop_16947_0_324" lane="16947_0" startPos="52.02" endpos="57.02" friendlyPos="1"/>
	<busStop id="busStop_16545_0_325" lane="16545_0" startPos="9.56" endpos="14.56" friendlyPos="1"/>
	<busStop id="busStop_16539_0_326" lane="16539_0" startPos="77.72" endpos="82.72" friendlyPos="1"/>
	<busStop id="busStop_16536_1_327" lane="16536_1" startPos="76.59" endpos="81.59" friendlyPos="1"/>
	<busStop id="busStop_17070_0_329" lane="17070_0" startPos="132.01" endpos="137.01" friendlyPos="1"/>
	<busStop id="busStop_16510_0_330" lane="16510_0" startPos="82.84" endpos="87.84" friendlyPos="1"/>
	<busStop id="busStop_1538_0_333" lane="1538_0" startPos="176.73" endpos="181.73" friendlyPos="1"/>
	<busStop id="busStop_2001_0_334" lane="2001_0" startPos="92.6" endpos="97.6" friendlyPos="1"/>
	<busStop id="busStop_1999_0_335" lane="1999_0" startPos="29.62" endpos="34.62" friendlyPos="1"/>
	<busStop id="busStop_2000_0_336" lane="2000_0" startPos="91.41" endpos="96.41" friendlyPos="1"/>
	<busStop id="busStop_1485_0_337" lane="1485_0" startPos="107.35" endpos="112.35" friendlyPos="1"/>
	<busStop id="busStop_1478_0_338" lane="1478_0" startPos="94.47" endpos="99.47" friendlyPos="1"/>
	<busStop id="busStop_1445_0_340" lane="1445_0" startPos="0.0" endpos="0.0" friendlyPos="1"/>
	<busStop id="busStop_1441_0_342" lane="1441_0" startPos="66.79" endpos="71.79" friendlyPos="1"/>
	<busStop id="busStop_1436_0_344" lane="1436_0" startPos="158.67" endpos="163.67" friendlyPos="1"/>
	<busStop id="busStop_1426_0_346" lane="1426_0" startPos="0.0" endpos="0.0" friendlyPos="1"/>
	<busStop id="busStop_1425_0_347" lane="1425_0" startPos="111.28" endpos="116.28" friendlyPos="1"/>
	<busStop id="busStop_2099_0_348" lane="2099_0" startPos="145.35" endpos="150.35" friendlyPos="1"/>
	<busStop id="busStop_-31666_1_349" lane="-31666_1" startPos="25.18" endpos="30.18" friendlyPos="1"/>
	<busStop id="busStop_-7190_0_351" lane="-7190_0" startPos="0.0" endpos="3.18" friendlyPos="1"/>
	<busStop id="busStop_-7173_0_352" lane="-7173_0" startPos="0.0" endpos="1.82" friendlyPos="1"/>
	<busStop id="busStop_-7123_0_353" lane="-7123_0" startPos="4.78" endpos="9.78" friendlyPos="1"/>
	<busStop id="busStop_-9282_0_354" lane="-9282_0" startPos="184.97" endpos="189.97" friendlyPos="1"/>
	<busStop id="busStop_-1692_0_355" lane="-1692_0" startPos="39.2" endpos="44.2" friendlyPos="1"/>
	<busStop id="busStop_-1692_0_356" lane="-1692_0" startPos="144.08" endpos="149.08" friendlyPos="1"/>
	<busStop id="busStop_-1621_0_357" lane="-1621_0" startPos="464.68" endpos="469.68" friendlyPos="1"/>
	<busStop id="busStop_-1604_0_358" lane="-1604_0" startPos="307.91" endpos="312.91" friendlyPos="1"/>
	<busStop id="busStop_-1515_1_359" lane="-1515_1" startPos="279.52" endpos="284.52" friendlyPos="1"/>
	<busStop id="busStop_-8893_0_360" lane="-8893_0" startPos="24.56" endpos="29.56" friendlyPos="1"/>
	<busStop id="busStop_-1426_0_361" lane="-1426_0" startPos="0.0" endpos="1.62" friendlyPos="1"/>
	<busStop id="busStop_-1614_0_362" lane="-1614_0" startPos="90.75" endpos="95.75" friendlyPos="1"/>
	<busStop id="busStop_-2294_0_363" lane="-2294_0" startPos="135.43" endpos="140.43" friendlyPos="1"/>
	<busStop id="busStop_-1436_0_364" lane="-1436_0" startPos="161.42" endpos="166.42" friendlyPos="1"/>
	<busStop id="busStop_-1438_0_365" lane="-1438_0" startPos="142.42" endpos="147.42" friendlyPos="1"/>
	<busStop id="busStop_-1450_0_367" lane="-1450_0" startPos="77.91" endpos="82.91" friendlyPos="1"/>
	<busStop id="busStop_-1457_0_368" lane="-1457_0" startPos="99.83" endpos="104.83" friendlyPos="1"/>
	<busStop id="busStop_-1464_0_369" lane="-1464_0" startPos="97.55" endpos="102.55" friendlyPos="1"/>
	<busStop id="busStop_-1470_0_370" lane="-1470_0" startPos="34.25" endpos="39.25" friendlyPos="1"/>
	<busStop id="busStop_1999_0_371" lane="1999_0" startPos="2.01" endpos="7.01" friendlyPos="1"/>
	<busStop id="busStop_-2002_0_372" lane="-2002_0" startPos="160.43" endpos="165.43" friendlyPos="1"/>
	<busStop id="busStop_-1538_0_374" lane="-1538_0" startPos="159.45" endpos="164.45" friendlyPos="1"/>
	<busStop id="busStop_-17067_0_375" lane="-17067_0" startPos="20.21" endpos="25.21" friendlyPos="1"/>
	<busStop id="busStop_-16507_0_376" lane="-16507_0" startPos="254.5" endpos="259.5" friendlyPos="1"/>
	<busStop id="busStop_-17070_0_377" lane="-17070_0" startPos="56.71" endpos="61.71" friendlyPos="1"/>
	<busStop id="busStop_-17069_0_378" lane="-17069_0" startPos="31.64" endpos="36.64" friendlyPos="1"/>
	<busStop id="busStop_-16530_0_379" lane="-16530_0" startPos="64.08" endpos="69.08" friendlyPos="1"/>
	<busStop id="busStop_-16536_0_380" lane="-16536_0" startPos="64.55" endpos="69.55" friendlyPos="1"/>
	<busStop id="busStop_-16539_0_381" lane="-16539_0" startPos="64.7" endpos="69.7" friendlyPos="1"/>
	<busStop id="busStop_-16545_0_382" lane="-16545_0" startPos="68.74" endpos="73.74" friendlyPos="1"/>
	<busStop id="busStop_16947_0_384" lane="16947_0" startPos="7.01" endpos="12.01" friendlyPos="1"/>
	<busStop id="busStop_25844_0_386" lane="25844_0" startPos="100.13" endpos="105.13" friendlyPos="1"/>
	<busStop id="busStop_25808_0_387" lane="25808_0" startPos="96.69" endpos="101.69" friendlyPos="1"/>
	<busStop id="busStop_25758_0_388" lane="25758_0" startPos="115.36" endpos="120.36" friendlyPos="1"/>
	<busStop id="busStop_25715_0_389" lane="25715_0" startPos="126.21" endpos="131.21" friendlyPos="1"/>
	<busStop id="busStop_25678_0_390" lane="25678_0" startPos="27.1" endpos="32.1" friendlyPos="1"/>
	<busStop id="busStop_25615_0_391" lane="25615_0" startPos="57.99" endpos="62.99" friendlyPos="1"/>
	<busStop id="busStop_31559_0_392" lane="31559_0" startPos="32.32" endpos="37.32" friendlyPos="1"/>
	<busStop id="busStop_31667_0_393" lane="31667_0" startPos="28.98" endpos="33.98" friendlyPos="1"/>
	<busStop id="busStop_25376_0_394" lane="25376_0" startPos="66.33" endpos="71.33" friendlyPos="1"/>
	<busStop id="busStop_30895_0_395" lane="30895_0" startPos="4.38" endpos="9.38" friendlyPos="1"/>
	<busStop id="busStop_25278_0_396" lane="25278_0" startPos="69.34" endpos="74.34" friendlyPos="1"/>
	<busStop id="busStop_30395_0_397" lane="30395_0" startPos="10.89" endpos="15.89" friendlyPos="1"/>
	<busStop id="busStop_17074_1_398" lane="17074_1" startPos="77.57" endpos="82.57" friendlyPos="1"/>
	<busStop id="busStop_16504_0_399" lane="16504_0" startPos="98.82" endpos="103.82" friendlyPos="1"/>
	<busStop id="busStop_-9853_0_400" lane="-9853_0" startPos="165.56" endpos="170.56" friendlyPos="1"/>
	<busStop id="busStop_-9689_0_402" lane="-9689_0" startPos="9.69" endpos="14.69" friendlyPos="1"/>
	<busStop id="busStop_-9732_0_403" lane="-9732_0" startPos="4.32" endpos="9.32" friendlyPos="1"/>
	<busStop id="busStop_-14173_0_404" lane="-14173_0" startPos="35.89" endpos="40.89" friendlyPos="1"/>
	<busStop id="busStop_-11237_0_405" lane="-11237_0" startPos="104.99" endpos="109.99" friendlyPos="1"/>
	<busStop id="busStop_-9910_0_406" lane="-9910_0" startPos="70.29" endpos="75.29" friendlyPos="1"/>
	<busStop id="busStop_14982_0_407" lane="14982_0" startPos="30.19" endpos="35.19" friendlyPos="1"/>
	<busStop id="busStop_14983_0_408" lane="14983_0" startPos="123.78" endpos="128.78" friendlyPos="1"/>
	<busStop id="busStop_9813_0_409" lane="9813_0" startPos="94.68" endpos="99.68" friendlyPos="1"/>
	<busStop id="busStop_-9843_0_410" lane="-9843_0" startPos="67.98" endpos="72.98" friendlyPos="1"/>
	<busStop id="busStop_-15053_0_411" lane="-15053_0" startPos="93.32" endpos="98.32" friendlyPos="1"/>
	<busStop id="busStop_78746_0_412" lane="78746_0" startPos="0.0" endpos="2.09" friendlyPos="1"/>
	<busStop id="busStop_78746_0_413" lane="78746_0" startPos="109.38" endpos="114.38" friendlyPos="1"/>
	<busStop id="busStop_2460_0_414" lane="2460_0" startPos="87.98" endpos="92.98" friendlyPos="1"/>
	<busStop id="busStop_2456_0_415" lane="2456_0" startPos="113.64" endpos="118.64" friendlyPos="1"/>
	<busStop id="busStop_11240_0_417" lane="11240_0" startPos="128.29" endpos="133.29" friendlyPos="1"/>
	<busStop id="busStop_-11239_0_418" lane="-11239_0" startPos="62.59" endpos="67.59" friendlyPos="1"/>
	<busStop id="busStop_-11239_0_419" lane="-11239_0" startPos="192.94" endpos="197.94" friendlyPos="1"/>
	<busStop id="busStop_-960_0_423" lane="-960_0" startPos="13.52" endpos="18.52" friendlyPos="1"/>
	<busStop id="busStop_-961_0_424" lane="-961_0" startPos="6.73" endpos="11.73" friendlyPos="1"/>
	<busStop id="busStop_-962_0_425" lane="-962_0" startPos="0.0" endpos="2.88" friendlyPos="1"/>
	<busStop id="busStop_-16529_0_428" lane="-16529_0" startPos="80.47" endpos="85.47" friendlyPos="1"/>
	<busStop id="busStop_-16535_0_429" lane="-16535_0" startPos="76.36" endpos="81.36" friendlyPos="1"/>
	<busStop id="busStop_-17280_0_430" lane="-17280_0" startPos="62.09" endpos="67.09" friendlyPos="1"/>
	<busStop id="busStop_-16593_0_431" lane="-16593_0" startPos="160.02" endpos="165.02" friendlyPos="1"/>
	<busStop id="busStop_-16601_0_432" lane="-16601_0" startPos="83.88" endpos="88.88" friendlyPos="1"/>
	<busStop id="busStop_-16624_0_433" lane="-16624_0" startPos="205.66" endpos="210.66" friendlyPos="1"/>
	<busStop id="busStop_-17109_0_434" lane="-17109_0" startPos="6.33" endpos="11.33" friendlyPos="1"/>
	<busStop id="busStop_-16678_0_435" lane="-16678_0" startPos="114.66" endpos="119.66" friendlyPos="1"/>
	<busStop id="busStop_-17298_0_436" lane="-17298_0" startPos="42.68" endpos="47.68" friendlyPos="1"/>
	<busStop id="busStop_-17297_0_437" lane="-17297_0" startPos="54.59" endpos="59.59" friendlyPos="1"/>
	<busStop id="busStop_-27388_0_439" lane="-27388_0" startPos="137.76" endpos="142.76" friendlyPos="1"/>
	<busStop id="busStop_-27530_0_440" lane="-27530_0" startPos="132.71" endpos="137.71" friendlyPos="1"/>
	<busStop id="busStop_-27608_0_441" lane="-27608_0" startPos="176.56" endpos="181.56" friendlyPos="1"/>
	<busStop id="busStop_-27658_0_442" lane="-27658_0" startPos="57.41" endpos="62.41" friendlyPos="1"/>
	<busStop id="busStop_-29136_0_443" lane="-29136_0" startPos="137.34" endpos="142.34" friendlyPos="1"/>
	<busStop id="busStop_-29199_0_444" lane="-29199_0" startPos="136.44" endpos="141.44" friendlyPos="1"/>
	<busStop id="busStop_-29272_0_445" lane="-29272_0" startPos="168.72" endpos="173.72" friendlyPos="1"/>
	<busStop id="busStop_-29345_0_446" lane="-29345_0" startPos="174.24" endpos="179.24" friendlyPos="1"/>
	<busStop id="busStop_-29381_0_447" lane="-29381_0" startPos="93.98" endpos="98.98" friendlyPos="1"/>
	<busStop id="busStop_-29407_0_448" lane="-29407_0" startPos="84.83" endpos="89.83" friendlyPos="1"/>
	<busStop id="busStop_30965_0_449" lane="30965_0" startPos="1.68" endpos="6.68" friendlyPos="1"/>
	<busStop id="busStop_-29611_0_450" lane="-29611_0" startPos="31.09" endpos="36.09" friendlyPos="1"/>
	<busStop id="busStop_-29679_0_451" lane="-29679_0" startPos="118.87" endpos="123.87" friendlyPos="1"/>
	<busStop id="busStop_29676_0_452" lane="29676_0" startPos="49.24" endpos="54.24" friendlyPos="1"/>
	<busStop id="busStop_-29737_0_453" lane="-29737_0" startPos="146.35" endpos="151.35" friendlyPos="1"/>
	<busStop id="busStop_-31400_0_454" lane="-31400_0" startPos="28.85" endpos="33.85" friendlyPos="1"/>
	<busStop id="busStop_17298_0_472" lane="17298_0" startPos="65.72" endpos="70.72" friendlyPos="1"/>
	<busStop id="busStop_17261_0_473" lane="17261_0" startPos="125.48" endpos="130.48" friendlyPos="1"/>
	<busStop id="busStop_17110_0_474" lane="17110_0" startPos="71.76" endpos="76.76" friendlyPos="1"/>
	<busStop id="busStop_16624_0_475" lane="16624_0" startPos="194.84" endpos="199.84" friendlyPos="1"/>
	<busStop id="busStop_16563_0_476" lane="16563_0" startPos="21.75" endpos="26.75" friendlyPos="1"/>
	<busStop id="busStop_17280_0_477" lane="17280_0" startPos="76.63" endpos="81.63" friendlyPos="1"/>
	<busStop id="busStop_16544_0_478" lane="16544_0" startPos="71.82" endpos="76.82" friendlyPos="1"/>
	<busStop id="busStop_16538_0_479" lane="16538_0" startPos="69.7" endpos="74.7" friendlyPos="1"/>
	<busStop id="busStop_16535_0_480" lane="16535_0" startPos="71.19" endpos="76.19" friendlyPos="1"/>
	<busStop id="busStop_16529_0_481" lane="16529_0" startPos="79.84" endpos="84.84" friendlyPos="1"/>
	<busStop id="busStop_17158_0_482" lane="17158_0" startPos="98.61" endpos="103.61" friendlyPos="1"/>