<?xml version="1.0" encoding="UTF-8"?>

<!-- generated on 2022-09-06 13:05:36 by Eclipse SUMO od2trips Version 1.11.0
<configuration xmlns:xsi="http://www.w3.org/2001/XMLSchema-instance" xsi:noNamespaceSchemaLocation="http://sumo.dlr.de/xsd/od2tripsConfiguration.xsd">

    <input>
        <taz-files value="taz.xml"/>
        <od-matrix-files value="OD_person.od"/>
    </input>

    <output>
        <output-file value="Person_trips.xml"/>
        <persontrips value="true"/>
        <persontrips.modes value="public"/>
    </output>

    <processing>
        <prefix value="person"/>
        <timeline value="16860:0.05,21600:0.25,32400:0.2,54000:0.25,64800:0.2,86400:0"/>
    </processing>

</configuration>
-->

<routes xmlns:xsi="http://www.w3.org/2001/XMLSchema-instance" xsi:noNamespaceSchemaLocation="http://sumo.dlr.de/xsd/routes_file.xsd">
    <person id="person74" depart="16878.38" departPos="random">
        <personTrip from="-25061" to="-31604" fromTaz="295" toTaz="317" arrivalPos="random" modes="public"/>
    </person>
    <person id="person133" depart="16886.95" departPos="random">
        <personTrip from="26227" to="34" fromTaz="472" toTaz="447" arrivalPos="random" modes="public"/>
    </person>
    <person id="person209" depart="16886.98" departPos="random">
        <personTrip from="-17199" to="26429" fromTaz="863" toTaz="864" arrivalPos="random" modes="public"/>
    </person>
    <person id="person36" depart="16911.68" departPos="random">
        <personTrip from="25147" to="2480" fromTaz="257" toTaz="313" arrivalPos="random" modes="public"/>
    </person>
    <person id="person79" depart="17052.98" departPos="random">
        <personTrip from="-31791" to="-2683" fromTaz="304" toTaz="274" arrivalPos="random" modes="public"/>
    </person>
    <person id="person214" depart="17054.52" departPos="random">
        <personTrip from="9251" to="-15054" fromTaz="904" toTaz="545" arrivalPos="random" modes="public"/>
    </person>
    <person id="person78" depart="17066.44" departPos="random">
        <personTrip from="-16919" to="-25506" fromTaz="304" toTaz="268" arrivalPos="random" modes="public"/>
    </person>
    <person id="person15" depart="17105.75" departPos="random">
        <personTrip from="-13609" to="11374" fromTaz="231" toTaz="468" arrivalPos="random" modes="public"/>
    </person>
    <person id="person73" depart="17107.87" departPos="random">
        <personTrip from="25062" to="6801" fromTaz="295" toTaz="313" arrivalPos="random" modes="public"/>
    </person>
    <person id="person64" depart="17112.13" departPos="random">
        <personTrip from="-6893" to="-9434" fromTaz="282" toTaz="334" arrivalPos="random" modes="public"/>
    </person>
    <person id="person146" depart="17135.19" departPos="random">
        <personTrip from="-16207" to="6087" fromTaz="487" toTaz="395" arrivalPos="random" modes="public"/>
    </person>
    <person id="person28" depart="17144.35" departPos="random">
        <personTrip from="14200" to="-8929" fromTaz="242" toTaz="309" arrivalPos="random" modes="public"/>
    </person>
    <person id="person110" depart="17164.97" departPos="random">
        <personTrip from="-6631" to="-8976" fromTaz="442" toTaz="309" arrivalPos="random" modes="public"/>
    </person>
    <person id="person105" depart="17195.55" departPos="random">
        <personTrip from="-17098" to="-30150" fromTaz="426" toTaz="460" arrivalPos="random" modes="public"/>
    </person>
    <person id="person134" depart="17199.39" departPos="random">
        <personTrip from="-24873" to="-31358" fromTaz="472" toTaz="472" arrivalPos="random" modes="public"/>
    </person>
    <person id="person130" depart="17211.54" departPos="random">
        <personTrip from="-16640" to="24865" fromTaz="464" toTaz="293" arrivalPos="random" modes="public"/>
    </person>
    <person id="person155" depart="17241.91" departPos="random">
        <personTrip from="-893" to="-26736" fromTaz="489" toTaz="316" arrivalPos="random" modes="public"/>
    </person>
    <person id="person10" depart="17253.73" departPos="random">
        <personTrip from="2458" to="26710" fromTaz="227" toTaz="316" arrivalPos="random" modes="public"/>
    </person>
    <person id="person39" depart="17255.71" departPos="random">
        <personTrip from="-30078" to="15043" fromTaz="265" toTaz="240" arrivalPos="random" modes="public"/>
    </person>
    <person id="person210" depart="17279.26" departPos="random">
        <personTrip from="-17344" to="16748" fromTaz="864" toTaz="863" arrivalPos="random" modes="public"/>
    </person>
    <person id="person66" depart="17304.83" departPos="random">
        <personTrip from="9191" to="9278" fromTaz="284" toTaz="334" arrivalPos="random" modes="public"/>
    </person>
    <person id="person68" depart="17387.67" departPos="random">
        <personTrip from="9753" to="-26625" fromTaz="289" toTaz="426" arrivalPos="random" modes="public"/>
    </person>
    <person id="person76" depart="17408.26" departPos="random">
        <personTrip from="-25238" to="-17487" fromTaz="296" toTaz="265" arrivalPos="random" modes="public"/>
    </person>
    <person id="person198" depart="17425.30" departPos="random">
        <personTrip from="17179" to="-16966" fromTaz="765" toTaz="544" arrivalPos="random" modes="public"/>
    </person>
    <person id="person186" depart="17430.92" departPos="random">
        <personTrip from="-14400" to="-9634" fromTaz="752" toTaz="752" arrivalPos="random" modes="public"/>
    </person>
    <person id="person101" depart="17451.45" departPos="random">
        <personTrip from="27541" to="gneE71" fromTaz="416" toTaz="216" arrivalPos="random" modes="public"/>
    </person>
    <person id="person136" depart="17458.17" departPos="random">
        <personTrip from="25040" to="-26517" fromTaz="472" toTaz="694" arrivalPos="random" modes="public"/>
    </person>
    <person id="person34" depart="17466.98" departPos="random">
        <personTrip from="33128" to="-6751" fromTaz="256" toTaz="282" arrivalPos="random" modes="public"/>
    </person>
    <person id="person1" depart="17470.28" departPos="random">
        <personTrip from="gneE73" to="-26145" fromTaz="216" toTaz="297" arrivalPos="random" modes="public"/>
    </person>
    <person id="person2" depart="17516.16" departPos="random">
        <personTrip from="gneE73" to="7116" fromTaz="216" toTaz="309" arrivalPos="random" modes="public"/>
    </person>
    <person id="person104" depart="17602.15" departPos="random">
        <personTrip from="26503" to="15810" fromTaz="426" toTaz="255" arrivalPos="random" modes="public"/>
    </person>
    <person id="person178" depart="17615.16" departPos="random">
        <personTrip from="-25351" to="15031" fromTaz="721" toTaz="240" arrivalPos="random" modes="public"/>
    </person>
    <person id="person145" depart="17616.02" departPos="random">
        <personTrip from="30971" to="30274" fromTaz="481" toTaz="863" arrivalPos="random" modes="public"/>
    </person>
    <person id="person48" depart="17629.62" departPos="random">
        <personTrip from="-25589" to="-6845" fromTaz="273" toTaz="309" arrivalPos="random" modes="public"/>
    </person>
    <person id="person22" depart="17644.85" departPos="random">
        <personTrip from="-15042" to="-1522" fromTaz="240" toTaz="227" arrivalPos="random" modes="public"/>
    </person>
    <person id="person149" depart="17651.17" departPos="random">
        <personTrip from="30288" to="-2358" fromTaz="487" toTaz="544" arrivalPos="random" modes="public"/>
    </person>
    <person id="person172" depart="17682.46" departPos="random">
        <personTrip from="25944" to="-17241" fromTaz="712" toTaz="487" arrivalPos="random" modes="public"/>
    </person>
    <person id="person174" depart="17703.65" departPos="random">
        <personTrip from="-32023" to="8960" fromTaz="717" toTaz="334" arrivalPos="random" modes="public"/>
    </person>
    <person id="person114" depart="17744.82" departPos="random">
        <personTrip from="6741" to="17247" fromTaz="442" toTaz="694" arrivalPos="random" modes="public"/>
    </person>
    <person id="person58" depart="17748.08" departPos="random">
        <personTrip from="-78759" to="14328" fromTaz="278" toTaz="488" arrivalPos="random" modes="public"/>
    </person>
    <person id="person55" depart="17755.14" departPos="random">
        <personTrip from="25016" to="-26791" fromTaz="276" toTaz="426" arrivalPos="random" modes="public"/>
    </person>
    <person id="person4" depart="17806.82" departPos="random">
        <personTrip from="gneE62" to="gneE31" fromTaz="223" toTaz="216" arrivalPos="random" modes="public"/>
    </person>
    <person id="person12" depart="17812.12" departPos="random">
        <personTrip from="38637" to="-25189" fromTaz="230" toTaz="294" arrivalPos="random" modes="public"/>
    </person>
    <person id="person152" depart="17858.33" departPos="random">
        <personTrip from="-25344" to="-17217" fromTaz="487" toTaz="864" arrivalPos="random" modes="public"/>
    </person>
    <person id="person142" depart="17864.70" departPos="random">
        <personTrip from="-27131" to="-16244" fromTaz="476" toTaz="764" arrivalPos="random" modes="public"/>
    </person>
    <person id="person24" depart="17872.93" departPos="random">
        <personTrip from="2575" to="-13560" fromTaz="241" toTaz="226" arrivalPos="random" modes="public"/>
    </person>
    <person id="person127" depart="17879.03" departPos="random">
        <personTrip from="-16770" to="26043" fromTaz="460" toTaz="466" arrivalPos="random" modes="public"/>
    </person>
    <person id="person170" depart="17880.07" departPos="random">
        <personTrip from="31324" to="-16649" fromTaz="711" toTaz="864" arrivalPos="random" modes="public"/>
    </person>
    <person id="person165" depart="17885.81" departPos="random">
        <personTrip from="17197" to="-16608" fromTaz="709" toTaz="863" arrivalPos="random" modes="public"/>
    </person>
    <person id="person175" depart="17902.70" departPos="random">
        <personTrip from="-32234" to="29318" fromTaz="717" toTaz="412" arrivalPos="random" modes="public"/>
    </person>
    <person id="person117" depart="17913.83" departPos="random">
        <personTrip from="25397" to="13704" fromTaz="449" toTaz="475" arrivalPos="random" modes="public"/>
    </person>
    <person id="person91" depart="17966.02" departPos="random">
        <personTrip from="-27045" to="16506" fromTaz="320" toTaz="293" arrivalPos="random" modes="public"/>
    </person>
    <person id="person40" depart="18004.19" departPos="random">
        <personTrip from="17829" to="-30101" fromTaz="265" toTaz="304" arrivalPos="random" modes="public"/>
    </person>
    <person id="person69" depart="18015.37" departPos="random">
        <personTrip from="-11693" to="287" fromTaz="289" toTaz="545" arrivalPos="random" modes="public"/>
    </person>
    <person id="person96" depart="18058.80" departPos="random">
        <personTrip from="11071" to="-E19" fromTaz="340" toTaz="239" arrivalPos="random" modes="public"/>
    </person>
    <person id="person84" depart="18103.18" departPos="random">
        <personTrip from="-7302" to="-14964" fromTaz="313" toTaz="313" arrivalPos="random" modes="public"/>
    </person>
    <person id="person87" depart="18109.11" departPos="random">
        <personTrip from="-31599" to="-30922" fromTaz="317" toTaz="430" arrivalPos="random" modes="public"/>
    </person>
    <person id="person200" depart="18113.46" departPos="random">
        <personTrip from="17122" to="-17128" fromTaz="765" toTaz="765" arrivalPos="random" modes="public"/>
    </person>
    <person id="person188" depart="18164.73" departPos="random">
        <personTrip from="-1604" to="-9808" fromTaz="755" toTaz="288" arrivalPos="random" modes="public"/>
    </person>
    <person id="person143" depart="18221.17" departPos="random">
        <personTrip from="-16175" to="-17199" fromTaz="476" toTaz="863" arrivalPos="random" modes="public"/>
    </person>
    <person id="person60" depart="18221.84" departPos="random">
        <personTrip from="-11378" to="-1700" fromTaz="279" toTaz="442" arrivalPos="random" modes="public"/>
    </person>
    <person id="person154" depart="18239.25" departPos="random">
        <personTrip from="9576" to="-26519" fromTaz="488" toTaz="765" arrivalPos="random" modes="public"/>
    </person>
    <person id="person43" depart="18270.37" departPos="random">
        <personTrip from="16532" to="-31784" fromTaz="266" toTaz="317" arrivalPos="random" modes="public"/>
    </person>
    <person id="person137" depart="18281.90" departPos="random">
        <personTrip from="29881" to="-16248" fromTaz="472" toTaz="765" arrivalPos="random" modes="public"/>
    </person>
    <person id="person181" depart="18311.17" departPos="random">
        <personTrip from="9810" to="-14316" fromTaz="734" toTaz="334" arrivalPos="random" modes="public"/>
    </person>
    <person id="person81" depart="18339.57" departPos="random">
        <personTrip from="7122" to="14982" fromTaz="309" toTaz="279" arrivalPos="random" modes="public"/>
    </person>
    <person id="person140" depart="18362.27" departPos="random">
        <personTrip from="11585" to="-14392" fromTaz="475" toTaz="488" arrivalPos="random" modes="public"/>
    </person>
    <person id="person183" depart="18387.03" departPos="random">
        <personTrip from="9515" to="-9721" fromTaz="752" toTaz="277" arrivalPos="random" modes="public"/>
    </person>
    <person id="person75" depart="18397.12" departPos="random">
        <personTrip from="25238" to="-9553" fromTaz="296" toTaz="239" arrivalPos="random" modes="public"/>
    </person>
    <person id="person144" depart="18453.16" departPos="random">
        <personTrip from="-27333" to="E16" fromTaz="481" toTaz="487" arrivalPos="random" modes="public"/>
    </person>
    <person id="person212" depart="18499.55" departPos="random">
        <personTrip from="-13650" to="9614" fromTaz="892" toTaz="292" arrivalPos="random" modes="public"/>
    </person>
    <person id="person191" depart="18528.28" departPos="random">
        <personTrip from="29819" to="-26809" fromTaz="763" toTaz="694" arrivalPos="random" modes="public"/>
    </person>
    <person id="person25" depart="18563.33" departPos="random">
        <personTrip from="-15004" to="14376" fromTaz="241" toTaz="240" arrivalPos="random" modes="public"/>
    </person>
    <person id="person77" depart="18583.32" departPos="random">
        <personTrip from="-30409" to="-1663" fromTaz="297" toTaz="226" arrivalPos="random" modes="public"/>
    </person>
    <person id="person109" depart="18591.24" departPos="random">
        <personTrip from="-28029" to="-30918" fromTaz="430" toTaz="721" arrivalPos="random" modes="public"/>
    </person>
    <person id="person195" depart="18597.00" departPos="random">
        <personTrip from="-26388" to="14324" fromTaz="764" toTaz="488" arrivalPos="random" modes="public"/>
    </person>
    <person id="person98" depart="18631.37" departPos="random">
        <personTrip from="-5648" to="6856" fromTaz="396" toTaz="282" arrivalPos="random" modes="public"/>
    </person>
    <person id="person215" depart="18636.70" departPos="random">
        <personTrip from="-30485" to="-2675" fromTaz="905" toTaz="228" arrivalPos="random" modes="public"/>
    </person>
    <person id="person187" depart="18653.30" departPos="random">
        <personTrip from="-1695" to="2879" fromTaz="754" toTaz="340" arrivalPos="random" modes="public"/>
    </person>
    <person id="person138" depart="18658.08" departPos="random">
        <personTrip from="-709" to="38631" fromTaz="474" toTaz="247" arrivalPos="random" modes="public"/>
    </person>
    <person id="person32" depart="18663.12" departPos="random">
        <personTrip from="38632" to="-26602" fromTaz="246" toTaz="321" arrivalPos="random" modes="public"/>
    </person>
    <person id="person31" depart="18669.12" departPos="random">
        <personTrip from="-13632" to="-25368" fromTaz="245" toTaz="268" arrivalPos="random" modes="public"/>
    </person>
    <person id="person0" depart="18682.07" departPos="random">
        <personTrip from="gneE61" to="-gneE33" fromTaz="215" toTaz="222" arrivalPos="random" modes="public"/>
    </person>
    <person id="person185" depart="18682.59" departPos="random">
        <personTrip from="-9683" to="-5635" fromTaz="752" toTaz="396" arrivalPos="random" modes="public"/>
    </person>
    <person id="person56" depart="18714.67" departPos="random">
        <personTrip from="-2005" to="-78833" fromTaz="278" toTaz="234" arrivalPos="random" modes="public"/>
    </person>
    <person id="person50" depart="18735.51" departPos="random">
        <personTrip from="9774" to="16580" fromTaz="274" toTaz="267" arrivalPos="random" modes="public"/>
    </person>
    <person id="person80" depart="18788.65" departPos="random">
        <personTrip from="-33092" to="-16088" fromTaz="305" toTaz="455" arrivalPos="random" modes="public"/>
    </person>
    <person id="person42" depart="18794.88" departPos="random">
        <personTrip from="24795" to="6401" fromTaz="265" toTaz="883" arrivalPos="random" modes="public"/>
    </person>
    <person id="person206" depart="18804.16" departPos="random">
        <personTrip from="30261" to="24897" fromTaz="863" toTaz="544" arrivalPos="random" modes="public"/>
    </person>
    <person id="person62" depart="18806.66" departPos="random">
        <personTrip from="-6862" to="-2716" fromTaz="282" toTaz="233" arrivalPos="random" modes="public"/>
    </person>
    <person id="person157" depart="18823.49" departPos="random">
        <personTrip from="17275" to="-78741" fromTaz="489" toTaz="864" arrivalPos="random" modes="public"/>
    </person>
    <person id="person18" depart="18844.16" departPos="random">
        <personTrip from="11376" to="-11689" fromTaz="236" toTaz="231" arrivalPos="random" modes="public"/>
    </person>
    <person id="person30" depart="18870.99" departPos="random">
        <personTrip from="9337" to="2216" fromTaz="245" toTaz="231" arrivalPos="random" modes="public"/>
    </person>
    <person id="person147" depart="18938.21" departPos="random">
        <personTrip from="-17330" to="-6511" fromTaz="487" toTaz="442" arrivalPos="random" modes="public"/>
    </person>
    <person id="person173" depart="18945.04" departPos="random">
        <personTrip from="31225" to="17190" fromTaz="712" toTaz="863" arrivalPos="random" modes="public"/>
    </person>
    <person id="person163" depart="18956.92" departPos="random">
        <personTrip from="-26144" to="16685" fromTaz="709" toTaz="316" arrivalPos="random" modes="public"/>
    </person>
    <person id="person182" depart="18960.95" departPos="random">
        <personTrip from="-9684" to="30978" fromTaz="752" toTaz="266" arrivalPos="random" modes="public"/>
    </person>
    <person id="person179" depart="19002.09" departPos="random">
        <personTrip from="-25405" to="7188" fromTaz="724" toTaz="282" arrivalPos="random" modes="public"/>
    </person>
    <person id="person38" depart="19032.15" departPos="random">
        <personTrip from="-25233" to="13960" fromTaz="264" toTaz="231" arrivalPos="random" modes="public"/>
    </person>
    <person id="person97" depart="19032.36" departPos="random">
        <personTrip from="11576" to="9899" fromTaz="396" toTaz="275" arrivalPos="random" modes="public"/>
    </person>
    <person id="person177" depart="19038.26" departPos="random">
        <personTrip from="-31977" to="-2230" fromTaz="717" toTaz="859" arrivalPos="random" modes="public"/>
    </person>
    <person id="person16" depart="19054.08" departPos="random">
        <personTrip from="-38638" to="6548" fromTaz="232" toTaz="442" arrivalPos="random" modes="public"/>
    </person>
    <person id="person14" depart="19113.74" departPos="random">
        <personTrip from="13960" to="17559" fromTaz="231" toTaz="427" arrivalPos="random" modes="public"/>
    </person>
    <person id="person93" depart="19170.59" departPos="random">
        <personTrip from="30903" to="-11226" fromTaz="321" toTaz="309" arrivalPos="random" modes="public"/>
    </person>
    <person id="person6" depart="19175.13" departPos="random">
        <personTrip from="-1480" to="-31635" fromTaz="224" toTaz="315" arrivalPos="random" modes="public"/>
    </person>
    <person id="person45" depart="19187.98" departPos="random">
        <personTrip from="25695" to="-31769" fromTaz="267" toTaz="273" arrivalPos="random" modes="public"/>
    </person>
    <person id="person90" depart="19188.62" departPos="random">
        <personTrip from="16731" to="1537" fromTaz="319" toTaz="274" arrivalPos="random" modes="public"/>
    </person>
    <person id="person49" depart="19190.87" departPos="random">
        <personTrip from="17783" to="17005" fromTaz="273" toTaz="712" arrivalPos="random" modes="public"/>
    </person>
    <person id="person65" depart="19197.64" departPos="random">
        <personTrip from="-7205" to="-2181" fromTaz="282" toTaz="468" arrivalPos="random" modes="public"/>
    </person>
    <person id="person168" depart="19217.67" departPos="random">
        <personTrip from="32360" to="25846" fromTaz="711" toTaz="449" arrivalPos="random" modes="public"/>
    </person>
    <person id="person213" depart="19246.75" departPos="random">
        <personTrip from="9189" to="-9793" fromTaz="895" toTaz="734" arrivalPos="random" modes="public"/>
    </person>
    <person id="person33" depart="19251.04" departPos="random">
        <personTrip from="-33126" to="16513" fromTaz="256" toTaz="265" arrivalPos="random" modes="public"/>
    </person>
    <person id="person125" depart="19274.40" departPos="random">
        <personTrip from="-31499" to="-31262" fromTaz="455" toTaz="487" arrivalPos="random" modes="public"/>
    </person>
    <person id="person164" depart="19300.19" departPos="random">
        <personTrip from="17197" to="-6608" fromTaz="709" toTaz="442" arrivalPos="random" modes="public"/>
    </person>
    <person id="person95" depart="19319.82" departPos="random">
        <personTrip from="-9019" to="-9170" fromTaz="334" toTaz="284" arrivalPos="random" modes="public"/>
    </person>
    <person id="person204" depart="19321.18" departPos="random">
        <personTrip from="-8709" to="-25973" fromTaz="859" toTaz="712" arrivalPos="random" modes="public"/>
    </person>
    <person id="person7" depart="19354.28" departPos="random">
        <personTrip from="38639" to="26420" fromTaz="224" toTaz="321" arrivalPos="random" modes="public"/>
    </person>
    <person id="person27" depart="19437.74" departPos="random">
        <personTrip from="-9008" to="14979" fromTaz="242" toTaz="278" arrivalPos="random" modes="public"/>
    </person>
    <person id="person57" depart="19442.65" departPos="random">
        <personTrip from="-15107" to="-9913" fromTaz="278" toTaz="274" arrivalPos="random" modes="public"/>
    </person>
    <person id="person129" depart="19447.08" departPos="random">
        <personTrip from="-30151" to="-25305" fromTaz="460" toTaz="763" arrivalPos="random" modes="public"/>
    </person>
    <person id="person52" depart="19475.21" departPos="random">
        <personTrip from="-32901" to="-959" fromTaz="275" toTaz="224" arrivalPos="random" modes="public"/>
    </person>
    <person id="person29" depart="19508.64" departPos="random">
        <personTrip from="2365" to="-14979" fromTaz="243" toTaz="279" arrivalPos="random" modes="public"/>
    </person>
    <person id="person148" depart="19514.83" departPos="random">
        <personTrip from="-17324" to="-30961" fromTaz="487" toTaz="472" arrivalPos="random" modes="public"/>
    </person>
    <person id="person17" depart="19522.18" departPos="random">
        <personTrip from="-13637" to="2483" fromTaz="235" toTaz="233" arrivalPos="random" modes="public"/>
    </person>
    <person id="person201" depart="19522.79" departPos="random">
        <personTrip from="-16227" to="-26967" fromTaz="765" toTaz="863" arrivalPos="random" modes="public"/>
    </person>
    <person id="person202" depart="19594.19" departPos="random">
        <personTrip from="290" to="9576" fromTaz="859" toTaz="488" arrivalPos="random" modes="public"/>
    </person>
    <person id="person92" depart="19610.87" departPos="random">
        <personTrip from="26537" to="-9553" fromTaz="321" toTaz="239" arrivalPos="random" modes="public"/>
    </person>
    <person id="person124" depart="19624.68" departPos="random">
        <personTrip from="-27192" to="-17084" fromTaz="455" toTaz="466" arrivalPos="random" modes="public"/>
    </person>
    <person id="person99" depart="19666.72" departPos="random">
        <personTrip from="-5710" to="14231" fromTaz="396" toTaz="313" arrivalPos="random" modes="public"/>
    </person>
    <person id="person156" depart="19669.76" departPos="random">
        <personTrip from="-911" to="26653" fromTaz="489" toTaz="694" arrivalPos="random" modes="public"/>
    </person>
    <person id="person70" depart="19674.79" departPos="random">
        <personTrip from="15196" to="-6764" fromTaz="292" toTaz="309" arrivalPos="random" modes="public"/>
    </person>
    <person id="person54" depart="19675.08" departPos="random">
        <personTrip from="-9905" to="14396" fromTaz="275" toTaz="752" arrivalPos="random" modes="public"/>
    </person>
    <person id="person5" depart="19681.36" departPos="random">
        <personTrip from="-959" to="-9193" fromTaz="224" toTaz="284" arrivalPos="random" modes="public"/>
    </person>
    <person id="person158" depart="19704.50" departPos="random">
        <personTrip from="13899" to="-17339" fromTaz="544" toTaz="864" arrivalPos="random" modes="public"/>
    </person>
    <person id="person122" depart="19706.61" departPos="random">
        <personTrip from="16737" to="13646" fromTaz="454" toTaz="446" arrivalPos="random" modes="public"/>
    </person>
    <person id="person37" depart="19742.53" departPos="random">
        <personTrip from="-25297" to="2467" fromTaz="263" toTaz="225" arrivalPos="random" modes="public"/>
    </person>
    <person id="person26" depart="19793.60" departPos="random">
        <personTrip from="-1697" to="-2087" fromTaz="241" toTaz="309" arrivalPos="random" modes="public"/>
    </person>
    <person id="person123" depart="19867.85" departPos="random">
        <personTrip from="27259" to="29907" fromTaz="455" toTaz="331" arrivalPos="random" modes="public"/>
    </person>
    <person id="person71" depart="19907.42" departPos="random">
        <personTrip from="-9516" to="-9305" fromTaz="292" toTaz="334" arrivalPos="random" modes="public"/>
    </person>
    <person id="person211" depart="19955.77" departPos="random">
        <personTrip from="-6431" to="15792" fromTaz="883" toTaz="256" arrivalPos="random" modes="public"/>
    </person>
    <person id="person19" depart="19956.18" departPos="random">
        <personTrip from="9387" to="14980" fromTaz="238" toTaz="279" arrivalPos="random" modes="public"/>
    </person>
    <person id="person46" depart="19958.24" departPos="random">
        <personTrip from="-25735" to="27091" fromTaz="267" toTaz="320" arrivalPos="random" modes="public"/>
    </person>
    <person id="person113" depart="19973.87" departPos="random">
        <personTrip from="1986" to="6359" fromTaz="442" toTaz="442" arrivalPos="random" modes="public"/>
    </person>
    <person id="person180" depart="20018.98" departPos="random">
        <personTrip from="25570" to="-31921" fromTaz="726" toTaz="717" arrivalPos="random" modes="public"/>
    </person>
    <person id="person205" depart="20031.11" departPos="random">
        <personTrip from="-1654" to="-31155" fromTaz="859" toTaz="863" arrivalPos="random" modes="public"/>
    </person>
    <person id="person159" depart="20031.65" departPos="random">
        <personTrip from="1949" to="-9607" fromTaz="545" toTaz="488" arrivalPos="random" modes="public"/>
    </person>
    <person id="person59" depart="20062.58" departPos="random">
        <personTrip from="-14980" to="-1441" fromTaz="279" toTaz="334" arrivalPos="random" modes="public"/>
    </person>
    <person id="person100" depart="20065.11" departPos="random">
        <personTrip from="11573" to="-9507" fromTaz="396" toTaz="475" arrivalPos="random" modes="public"/>
    </person>
    <person id="person89" depart="20069.49" departPos="random">
        <personTrip from="32875" to="14396" fromTaz="318" toTaz="752" arrivalPos="random" modes="public"/>
    </person>
    <person id="person141" depart="20083.29" departPos="random">
        <personTrip from="-13703" to="295" fromTaz="475" toTaz="543" arrivalPos="random" modes="public"/>
    </person>
    <person id="person106" depart="20088.27" departPos="random">
        <personTrip from="28985" to="26814" fromTaz="427" toTaz="429" arrivalPos="random" modes="public"/>
    </person>
    <person id="person131" depart="20095.40" departPos="random">
        <personTrip from="-26556" to="27450" fromTaz="465" toTaz="460" arrivalPos="random" modes="public"/>
    </person>
    <person id="person53" depart="20106.12" departPos="random">
        <personTrip from="16496" to="9493" fromTaz="275" toTaz="239" arrivalPos="random" modes="public"/>
    </person>
    <person id="person162" depart="20136.49" departPos="random">
        <personTrip from="26531" to="29875" fromTaz="694" toTaz="765" arrivalPos="random" modes="public"/>
    </person>
    <person id="person218" depart="20138.91" departPos="random">
        <personTrip from="31457" to="-9233" fromTaz="906" toTaz="284" arrivalPos="random" modes="public"/>
    </person>
    <person id="person111" depart="20168.69" departPos="random">
        <personTrip from="6542" to="6079" fromTaz="442" toTaz="395" arrivalPos="random" modes="public"/>
    </person>
    <person id="person192" depart="20171.23" departPos="random">