<additional>
	<inductionLoop id="139882998" lane="-27372_0" pos="347.179048314861" file="out.xml" freq="300" friendlyPos="True"/>
	<inductionLoop id="139891251" lane="-5319_0" pos="19.01055669915" file="out.xml" freq="300" friendlyPos="True"/>
	<inductionLoop id="139934118" lane="-8914_0" pos="227.393393650152" file="out.xml" freq="300" friendlyPos="True"/>
	<inductionLoop id="139937772" lane="-38699_0" pos="22.1402920572188" file="out.xml" freq="300" friendlyPos="True"/>
	<inductionLoop id="139943408" lane="28173_0" pos="51.4692049128248" file="out.xml" freq="300" friendlyPos="True"/>
	<inductionLoop id="139947304" lane="-16649_0" pos="114.777287013415" file="out.xml" freq="300" friendlyPos="True"/>
	<inductionLoop id="139947675" lane="27309_0" pos="304.802114556554" file="out.xml" freq="300" friendlyPos="True"/>
	<inductionLoop id="139947753" lane="-31792_0" pos="87.4491643418324" file="out.xml" freq="300" friendlyPos="True"/>
	<inductionLoop id="139947767" lane="25125_0" pos="90.9675813788592" file="out.xml" freq="300" friendlyPos="True"/>
	<inductionLoop id="139947816" lane="5420_0" pos="129.03397671528" file="out.xml" freq="300" friendlyPos="True"/>
	<inductionLoop id="139949952" lane="31296_0" pos="13.0887971239344" file="out.xml" freq="300" friendlyPos="True"/>
	<inductionLoop id="139952113" lane="12757_0" pos="88.1285407044587" file="out.xml" freq="300" friendlyPos="True"/>
	<inductionLoop id="139953794" lane="4207_0" pos="26.2179327549351" file="out.xml" freq="300" friendlyPos="True"/>
	<inductionLoop id="139958774" lane="27814_0" pos="230.553734210809" file="out.xml" freq="300" friendlyPos="True"/>
	<inductionLoop id="139970111" lane="-7768_0" pos="52.5392553967981" file="out.xml" freq="300" friendlyPos="True"/>
	<inductionLoop id="139970140" lane="-25026_0" pos="1.44012387150248" file="out.xml" freq="300" friendlyPos="True"/>
	<inductionLoop id="139970281" lane="29837_0" pos="157.806138028543" file="out.xml" freq="300" friendlyPos="True"/>
	<inductionLoop id="139976246" lane="2522_1" pos="80.2132028503914" file="out.xml" freq="300" friendlyPos="True"/>
	<inductionLoop id="139977417" lane="29185_0" pos="155.928710483784" file="out.xml" freq="300" friendlyPos="True"/>
	<inductionLoop id="139978665" lane="-27174_0" pos="113.787405380507" file="out.xml" freq="300" friendlyPos="True"/>
	<inductionLoop id="139984156" lane="-29190_0" pos="28.7504774130132" file="out.xml" freq="300" friendlyPos="True"/>
	<inductionLoop id="139991408" lane="10648_0" pos="19.2378036093448" file="out.xml" freq="300" friendlyPos="True"/>
	<inductionLoop id="140000337" lane="-6358_0" pos="69.409401469627" file="out.xml" freq="300" friendlyPos="True"/>
	<inductionLoop id="140005060" lane="-14323_0" pos="255.760996630519" file="out.xml" freq="300" friendlyPos="True"/>
	<inductionLoop id="140008844" lane="13074_0" pos="166.467422326966" file="out.xml" freq="300" friendlyPos="True"/>
	<inductionLoop id="140011429" lane="13739_0" pos="10.1067201392779" file="out.xml" freq="300" friendlyPos="True"/>
	<inductionLoop id="140015985" lane="-13938_0" pos="529.658881882382" file="out.xml" freq="300" friendlyPos="True"/>
	<inductionLoop id="140016287" lane="-25069_0" pos="129.519874473936" file="out.xml" freq="300" friendlyPos="True"/>
	<inductionLoop id="140018105" lane="11391_0" pos="11.015838828709" file="out.xml" freq="300" friendlyPos="True"/>
	<inductionLoop id="140020640" lane="6916_0" pos="107.927486002871" file="out.xml" freq="300" friendlyPos="True"/>
	<inductionLoop id="140030044" lane="-11719_0" pos="310.548237391598" file="out.xml" freq="300" friendlyPos="True"/>
	<inductionLoop id="140033962" lane="-28990_0" pos="542.389985513434" file="out.xml" freq="300" friendlyPos="True"/>
	<inductionLoop id="140034456" lane="-15132_0" pos="8.16793812002961" file="out.xml" freq="300" friendlyPos="True"/>
	<inductionLoop id="140034498" lane="-6578_0" pos="436.596226474582" file="out.xml" freq="300" friendlyPos="True"/>
	<inductionLoop id="140034550" lane="10061_0" pos="1197.0897342377" file="out.xml" freq="300" friendlyPos="True"/>
	<inductionLoop id="140039102" lane="27833_0" pos="20.5179730204924" file="out.xml" freq="300" friendlyPos="True"/>
	<inductionLoop id="140044535" lane="-25019_0" pos="23.8187420908565" file="out.xml" freq="300" friendlyPos="True"/>
	<inductionLoop id="140046719" lane="29176_0" pos="49.3002402804197" file="out.xml" freq="300" friendlyPos="True"/>
	<inductionLoop id="140046721" lane="27524_0" pos="1.28008994833419" file="out.xml" freq="300" friendlyPos="True"/>
	<inductionLoop id="140047362" lane="-6628_0" pos="30.7965544806439" file="out.xml" freq="300" friendlyPos="True"/>
	<inductionLoop id="140047782" lane="31443_0" pos="2.83644050221718" file="out.xml" freq="300" friendlyPos="True"/>
	<inductionLoop id="140050916" lane="-30264_0" pos="10.516255238634" file="out.xml" freq="300" friendlyPos="True"/>
	<inductionLoop id="140051960" lane="9443_0" pos="53.0272721286616" file="out.xml" freq="300" friendlyPos="True"/>
	<inductionLoop id="140052641" lane="-29205_0" pos="47.850673468619" file="out.xml" freq="300" friendlyPos="True"/>
	<inductionLoop id="140053570" lane="-27112_0" pos="31.2199905944549" file="out.xml" freq="300" friendlyPos="True"/>
	<inductionLoop id="140058612" lane="-25167_0" pos="81.3495387273205" file="out.xml" freq="300" friendlyPos="True"/>
	<inductionLoop id="140058834" lane="-8052_0" pos="652.114564093876" file="out.xml" freq="300" friendlyPos="True"/>
	<inductionLoop id="140066249" lane="-25169_0" pos="10.3139596898245" file="out.xml" freq="300" friendlyPos="True"/>
	<inductionLoop id="140066293" lane="8053_0" pos="206.306900511456" file="out.xml" freq="300" friendlyPos="True"/>
	<inductionLoop id="140067290" lane="-9356_0" pos="6.69523302542074" file="out.xml" freq="300" friendlyPos="True"/>
	<inductionLoop id="140072360" lane="-16798_0" pos="425.101614892881" file="out.xml" freq="300" friendlyPos="True"/>
	<inductionLoop id="140073769" lane="-6742_0" pos="380.010897354798" file="out.xml" freq="300" friendlyPos="True"/>
	<inductionLoop id="140075813" lane="-31709_1" pos="40.1597884185352" file="out.xml" freq="300" friendlyPos="True"/>
	<inductionLoop id="140081620" lane="13075_0" pos="9.92230449062575" file="out.xml" freq="300" friendlyPos="True"/>
	<inductionLoop id="140083147" lane="-24922_0" pos="40.7814538646615" file="out.xml" freq="300" friendlyPos="True"/>
	<inductionLoop id="140083249" lane="-9904_0" pos="134.51153287447" file="out.xml" freq="300" friendlyPos="True"/>
	<inductionLoop id="140083591" lane="3309_0" pos="83.0428752183517" file="out.xml" freq="300" friendlyPos="True"/>
	<inductionLoop id="140090327" lane="28190_0" pos="103.917572454044" file="out.xml" freq="300" friendlyPos="True"/>
	<inductionLoop id="140093999" lane="-13736_0" pos="57.7395302356567" file="out.xml" freq="300" friendlyPos="True"/>
	<inductionLoop id="140094584" lane="-31568_0" pos="4.88430261878478" file="out.xml" freq="300" friendlyPos="True"/>
	<inductionLoop id="140098304" lane="-9138_0" pos="85.1752583561379" file="out.xml" freq="300" friendlyPos="True"/>
	<inductionLoop id="140098893" lane="-15488_0" pos="744.473579907133" file="out.xml" freq="300" friendlyPos="True"/>
	<inductionLoop id="140107011" lane="31387_0" pos="1.29329210109766" file="out.xml" freq="300" friendlyPos="True"/>
	<inductionLoop id="140109730" lane="28660_0" pos="229.468654831207" file="out.xml" freq="300" friendlyPos="True"/>
	<inductionLoop id="140114812" lane="-3311_0" pos="561.417665616484" file="out.xml" freq="300" friendlyPos="True"/>
	<inductionLoop id="140124148" lane="29486_0" pos="75.5306169011465" file="out.xml" freq="300" friendlyPos="True"/>
	<inductionLoop id="140125808" lane="26854_0" pos="66.4373318669845" file="out.xml" freq="300" friendlyPos="True"/>
	<inductionLoop id="140126825" lane="-30025_0" pos="458.217459117017" file="out.xml" freq="300" friendlyPos="True"/>
	<inductionLoop id="140127869" lane="-24981_0" pos="26.5385909092155" file="out.xml" freq="300" friendlyPos="True"/>
	<inductionLoop id="140127875" lane="14141_0" pos="31.7621187047534" file="out.xml" freq="300" friendlyPos="True"/>
	<inductionLoop id="140127996" lane="-30957_0" pos="46.5977333792029" file="out.xml" freq="300" friendlyPos="True"/>
	<inductionLoop id="140131300" lane="26800_0" pos="67.5507724635554" file="out.xml" freq="300" friendlyPos="True"/>
	<inductionLoop id="140131308" lane="8703_0" pos="244.577001254643" file="out.xml" freq="300" friendlyPos="True"/>
	<inductionLoop id="140132356" lane="-9920_0" pos="56.8428701484843" file="out.xml" freq="300" friendlyPos="True"/>
	<inductionLoop id="140133814" lane="31419_0" pos="86.946615533225" file="out.xml" freq="300" friendlyPos="True"/>
	<inductionLoop id="140136315" lane="11271_0" pos="516.696692081602" file="out.xml" freq="300" friendlyPos="True"/>
	<inductionLoop id="140138456" lane="-28147_0" pos="426.144609210922" file="out.xml" freq="300" friendlyPos="True"/>
	<inductionLoop id="140138458" lane="-28339_0" pos="72.7367263715188" file="out.xml" freq="300" friendlyPos="True"/>
	<inductionLoop id="140138530" lane="16908_0" pos="1.0675226655728" file="out.xml" freq="300" friendlyPos="True"/>
	<inductionLoop id="140143065" lane="9876_0" pos="32.8364215188289" file="out.xml" freq="300" friendlyPos="True"/>
	<inductionLoop id="140151365" lane="-27638_0" pos="255.859277778534" file="out.xml" freq="300" friendlyPos="True"/>
	<inductionLoop id="140151439" lane="-25647_0" pos="11.1171173741372" file="out.xml" freq="300" friendlyPos="True"/>
	<inductionLoop id="140152068" lane="-32405_0" pos="18.1058436888245" file="out.xml" freq="300" friendlyPos="True"/>
	<inductionLoop id="140154529" lane="-27233_0" pos="16.6793037511526" file="out.xml" freq="300" friendlyPos="True"/>
	<inductionLoop id="140155477" lane="25251_0" pos="3.28434658211953" file="out.xml" freq="300" friendlyPos="True"/>
	<inductionLoop id="140156222" lane="-4931_0" pos="119.249525948713" file="out.xml" freq="300" friendlyPos="True"/>
	<inductionLoop id="140156234" lane="3558_0" pos="97.6362025782043" file="out.xml" freq="300" friendlyPos="True"/>
	<inductionLoop id="140158424" lane="27283_0" pos="105.116973888667" file="out.xml" freq="300" friendlyPos="True"/>
	<inductionLoop id="140160955" lane="-2850_1" pos="7.96054866504809" file="out.xml" freq="300" friendlyPos="True"/>
	<inductionLoop id="140160983" lane="9496_0" pos="59.1632109622174" file="out.xml" freq="300" friendlyPos="True"/>
	<inductionLoop id="140173209" lane="-9139_0" pos="34.1279847477941" file="out.xml" freq="300" friendlyPos="True"/>
	<inductionLoop id="140173214" lane="-9024_0" pos="402.004331124668" file="out.xml" freq="300" friendlyPos="True"/>
	<inductionLoop id="140174792" lane="24830_0" pos="50.7810634556778" file="out.xml" freq="300" friendlyPos="True"/>
	<inductionLoop id="140182072" lane="-29579_0" pos="91.3924246704894" file="out.xml" freq="300" friendlyPos="True"/>
	<inductionLoop id="140182462" lane="-7018_0" pos="13.807615125318" file="out.xml" freq="300" friendlyPos="True"/>
	<inductionLoop id="140201134" lane="-16738_0" pos="67.0070011711354" file="out.xml" freq="300" friendlyPos="True"/>
	<inductionLoop id="140201167" lane="6618_0" pos="59.2257163122373" file="out.xml" freq="300" friendlyPos="True"/>
	<inductionLoop id="140202614" lane="26010_0" pos="83.6653199210214" file="out.xml" freq="300" friendlyPos="True"/>
	<inductionLoop id="140203048" lane="-6611_0" pos="10.486139536464" file="out.xml" freq="300" friendlyPos="True"/>
	<inductionLoop id="140204945" lane="13738_0" pos="61.8395521598222" file="out.xml" freq="300" friendlyPos="True"/>
	<inductionLoop id="140205436" lane="-9521_0" pos="39.4026671529235" file="out.xml" freq="300" friendlyPos="True"/>
	<inductionLoop id="140205501" lane="-4183_0" pos="261.698175216167" file="out.xml" freq="300" friendlyPos="True"/>
	<inductionLoop id="140210962" lane="-30101_0" pos="6.3799891053478" file="out.xml" freq="300" friendlyPos="True"/>
	<inductionLoop id="140213676" lane="-7210_0" pos="237.278639575346" file="out.xml" freq="300" friendlyPos="True"/>
	<inductionLoop id="140214262" lane="-9295_0" pos="80.8609842681117" file="out.xml" freq="300" friendlyPos="True"/>
	<inductionLoop id="140217073" lane="-31355_0" pos="92.9172670029913" file="out.xml" freq="300" friendlyPos="True"/>
	<inductionLoop id="140218647" lane="27566_0" pos="8.18457200182762" file="out.xml" freq="300" friendlyPos="True"/>
	<inductionLoop id="140218721" lane="-9121_0" pos="30.4802799199628" file="out.xml" freq="300" friendlyPos="True"/>
	<inductionLoop id="140222944" lane="24808_0" pos="6.00559467807866" file="out.xml" freq="300" friendlyPos="True"/>
	<inductionLoop id="140223024" lane="3317_0" pos="115.564940131269" file="out.xml" freq="300" friendlyPos="True"/>
	<inductionLoop id="140226127" lane="27572_0" pos="49.6768465701498" file="out.xml" freq="300" friendlyPos="True"/>
	<inductionLoop id="140231105" lane="2873_0" pos="244.975260029367" file="out.xml" freq="300" friendlyPos="True"/>
	<inductionLoop id="140232962" lane="17335_0" pos="12.9058216458694" file="out.xml" freq="300" friendlyPos="True"/>
	<inductionLoop id="140234808" lane="6657_0" pos="78.5986147344481" file="out.xml" freq="300" friendlyPos="True"/>
	<inductionLoop id="140239125" lane="26677_0" pos="140.6573449488" file="out.xml" freq="300" friendlyPos="True"/>
	<inductionLoop id="140239126" lane="-26593_0" pos="87.0774953025935" file="out.xml" freq="300" friendlyPos="True"/>
	<inductionLoop id="140241652" lane="6633_0" pos="75.0549177633017" file="out.xml" freq="300" friendlyPos="True"/>
	<inductionLoop id="140241654" lane="-6501_0" pos="311.689101569666" file="out.xml" freq="300" friendlyPos="True"/>
	<inductionLoop id="140241699" lane="25367_0" pos="35.9177554172016" file="out.xml" freq="300" friendlyPos="True"/>
	<inductionLoop id="140242187" lane="-11253_0" pos="72.5240077376214" file="out.xml" freq="300" friendlyPos="True"/>
	<inductionLoop id="140243661" lane="-14311_0" pos="52.0749969217716" file="out.xml" freq="300" friendlyPos="True"/>
	<inductionLoop id="140246621" lane="-33126_0" pos="2.78032632252495" file="out.xml" freq="300" friendlyPos="True"/>
	<inductionLoop id="140248292" lane="-31698_0" pos="122.647917064127" file="out.xml" freq="300" friendlyPos="True"/>
	<inductionLoop id="140252392" lane="26123_0" pos="19.897233683897" file="out.xml" freq="300" friendlyPos="True"/>
	<inductionLoop id="140252704" lane="-29042_0" pos="89.1409539130707" file="out.xml" freq="300" friendlyPos="True"/>
	<inductionLoop id="140256084" lane="-10455_0" pos="1.3432695102747" file="out.xml" freq="300" friendlyPos="True"/>
	<inductionLoop id="140264295" lane="-6761_0" pos="39.2325738129741" file="out.xml" freq="300" friendlyPos="True"/>
	<inductionLoop id="140264650" lane="-26805_0" pos="0.510169608162692" file="out.xml" freq="300" friendlyPos="True"/>
	<inductionLoop id="140275149" lane="-25246_0" pos="69.5809642760121" file="out.xml" freq="300" friendlyPos="True"/>
	<inductionLoop id="140279617" lane="-2167_0" pos="7.77967080602184" file="out.xml" freq="300" friendlyPos="True"/>
	<inductionLoop id="140279662" lane="-14133_0" pos="48.5651174042166" file="out.xml" freq="300" friendlyPos="True"/>
	<inductionLoop id="140279664" lane="9068_0" pos="0.987486063647065" file="out.xml" freq="300" friendlyPos="True"/>
	<inductionLoop id="140283205" lane="-13752_0" pos="25.4235929267693" file="out.xml" freq="300" friendlyPos="True"/>
	<inductionLoop id="140283976" lane="27818_0" pos="68.2877218371591" file="out.xml" freq="300" friendlyPos="True"/>
	<inductionLoop id="140283986" lane="-29832_0" pos="44.8981466987246" file="out.xml" freq="300" friendlyPos="True"/>
	<inductionLoop id="140287140" lane="-6576_0" pos="27.4600357566903" file="out.xml" freq="300" friendlyPos="True"/>
	<inductionLoop id="140287313" lane="7053_0" pos="113.673910720726" file="out.xml" freq="300" friendlyPos="True"/>
	<inductionLoop id="140287314" lane="-14295_0" pos="693.372917146607" file="out.xml" freq="300" friendlyPos="True"/>
	<inductionLoop id="140288266" lane="-25168_0" pos="54.2257555356739" file="out.xml" freq="300" friendlyPos="True"/>
	<inductionLoop id="140288367" lane="-33129_0" pos="85.4889000705055" file="out.xml" freq="300" friendlyPos="True"/>
	<inductionLoop id="140292362" lane="-9341_0" pos="79.606556353894" file="out.xml" freq="300" friendlyPos="True"/>
	<inductionLoop id="140292622" lane="-3316_0" pos="101.218343076769" file="out.xml" freq="300" friendlyPos="True"/>
	<inductionLoop id="140296119" lane="-27560_0" pos="14.6797041688251" file="out.xml" freq="300" friendlyPos="True"/>
	<inductionLoop id="140296347" lane="-11148_0" pos="328.413097842851" file="out.xml" freq="300" friendlyPos="True"/>
	<inductionLoop id="140296832" lane="-29182_0" pos="262.989257797271" file="out.xml" freq="300" friendlyPos="True"/>
	<inductionLoop id="140301515" lane="3572_0" pos="2.78826532895982" file="out.xml" freq="300" friendlyPos="True"/>
	<inductionLoop id="140305144" lane="-25833_0" pos="26.6262039640134" file="out.xml" freq="300" friendlyPos="True"/>
	<inductionLoop id="140311165" lane="-24963_0" pos="14.375122861127" file="out.xml" freq="300" friendlyPos="True"/>
	<inductionLoop id="140312837" lane="6953_0" pos="62.9042266419971" file="out.xml" freq="300" friendlyPos="True"/>
	<inductionLoop id="140312920" lane="-11239_0" pos="40.2438189772321" file="out.xml" freq="300" friendlyPos="True"/>
	<inductionLoop id="140317254" lane="31263_0" pos="29.4617623203558" file="out.xml" freq="300" friendlyPos="True"/>
	<inductionLoop id="140317767" lane="2874_0" pos="108.102215123835" file="out.xml" freq="300" friendlyPos="True"/>
	<inductionLoop id="140317777" lane="4960_0" pos="123.4301888384" file="out.xml" freq="300" friendlyPos="True"/>
	<inductionLoop id="140318881" lane="14140_0" pos="548.433259421371" file="out.xml" freq="300" friendlyPos="True"/>
	<inductionLoop id="140318953" lane="-14135_0" pos="79.0444381732324" file="out.xml" freq="300" friendlyPos="True"/>
	<inductionLoop id="140319151" lane="-15487_0" pos="1284.82042543802" file="out.xml" freq="300" friendlyPos="True"/>
	<inductionLoop id="140321854" lane="29625_0" pos="66.3235986559866" file="out.xml" freq="300" friendlyPos="True"/>
	<inductionLoop id="140321877" lane="-25152_0" pos="101.848034893724" file="out.xml" freq="300" friendlyPos="True"/>
	<inductionLoop id="140321880" lane="9854_0" pos="82.168196684975" file="out.xml" freq="300" friendlyPos="True"/>
	<inductionLoop id="140321923" lane="-9381_0" pos="2.38311449865045" file="out.xml" freq="300" friendlyPos="True"/>
	<inductionLoop id="140321975" lane="-8984_0" pos="49.5474790579308" file="out.xml" freq="300" friendlyPos="True"/>
	<inductionLoop id="140323180" lane="9084_0" pos="1.50096738012414" file="out.xml" freq="300" friendlyPos="True"/>
	<inductionLoop id="140325367" lane="-25422_0" pos="2.79130725570103" file="out.xml" freq="300" friendlyPos="True"/>
	<inductionLoop id="140325531" lane="9786_0" pos="372.738986533136" file="out.xml" freq="300" friendlyPos="True"/>
	<inductionLoop id="140326107" lane="27382_0" pos="105.461302763264" file="out.xml" freq="300" friendlyPos="True"/>
	<inductionLoop id="140327130" lane="1972_0" pos="26.5967783274454" file="out.xml" freq="300" friendlyPos="True"/>
	<inductionLoop id="140327135" lane="-16782_0" pos="441.756355037377" file="out.xml" freq="300" friendlyPos="True"/>
	<inductionLoop id="140327385" lane="25493_0" pos="31.035621233524" file="out.xml" freq="300" friendlyPos="True"/>
	<inductionLoop id="140327741" lane="-10847_0" pos="64.5359376335287" file="out.xml" freq="300" friendlyPos="True"/>
	<inductionLoop id="140328550" lane="-5282_0" pos="137.272281182066" file="out.xml" freq="300" friendlyPos="True"/>
	<inductionLoop id="140329130" lane="-28965_0" pos="287.116073471657" file="out.xml" freq="300" friendlyPos="True"/>
	<inductionLoop id="140329303" lane="26710_0" pos="21.8522648810435" file="out.xml" freq="300" friendlyPos="True"/>
	<inductionLoop id="140329591" lane="-29656_0" pos="34.4567122012078" file="out.xml" freq="300" friendlyPos="True"/>
	<inductionLoop id="140329604" lane="-31641_0" pos="41.4449661512246" file="out.xml" freq="300" friendlyPos="True"/>
	<inductionLoop id="140329613" lane="7149_0" pos="101.586060829247" file="out.xml" freq="300" friendlyPos="True"/>
	<inductionLoop id="140329893" lane="-31493_0" pos="11.4434294410907" file="out.xml" freq="300" friendlyPos="True"/>
	<inductionLoop id="140331697" lane="-11718_0" pos="402.981370001503" file="out.xml" freq="300" friendlyPos="True"/>
	<inductionLoop id="140332318" lane="31695_0" pos="29.9677629764078" file="out.xml" freq="300" friendlyPos="True"/>
	<inductionLoop id="140332453" lane="-25396_0" pos="95.2523630206502" file="out.xml" freq="300" friendlyPos="True"/>
	<inductionLoop id="140334893" lane="-30020_0" pos="307.477814380887" file="out.xml" freq="300" friendlyPos="True"/>
	<inductionLoop id="140341769" lane="-31264_0" pos="38.0258142911771" file="out.xml" freq="300" friendlyPos="True"/>
	<inductionLoop id="140343446" lane="-29090_0" pos="10.1131743758183" file="out.xml" freq="300" friendlyPos="True"/>
	<inductionLoop id="140343450" lane="29361_0" pos="74.4029000462381" file="out.xml" freq="300" friendlyPos="True"/>
	<inductionLoop id="140343468" lane="25287_0" pos="10.2348915925117" file="out.xml" freq="300" friendlyPos="True"/>
	<inductionLoop id="140352921" lane="14993_0" pos="111.522772639338" file="out.xml" freq="300" friendlyPos="True"/>
	<inductionLoop id="140355109" lane="31255_0" pos="63.1776576108656" file="out.xml" freq="300" friendlyPos="True"/>
	<inductionLoop id="140361912" lane="-6595_0" pos="376.738885436532" file="out.xml" freq="300" friendlyPos="True"/>
	<inductionLoop id="140361914" lane="-6457_0" pos="104.920044536647" file="out.xml" freq="300" friendlyPos="True"/>
	<inductionLoop id="140363504" lane="29274_0" pos="73.4885791965263" file="out.xml" freq="300" friendlyPos="True"/>
	<inductionLoop id="140364352" lane="-14986_0" pos="127.673949220104" file="out.xml" freq="300" friendlyPos="True"/>
	<inductionLoop id="140364754" lane="-11440_0" pos="63.2593310358642" file="out.xml" freq="300" friendlyPos="True"/>
	<inductionLoop id="140366267" lane="-9639_0" pos="27.6414938518528" file="out.xml" freq="300" friendlyPos="True"/>
	<inductionLoop id="140366722" lane="28159_0" pos="152.903697292713" file="out.xml" freq="300" friendlyPos="True"/>
	<inductionLoop id="140366734" lane="29385_0" pos="104.778827920299" file="out.xml" freq="300" friendlyPos="True"/>
	<inductionLoop id="140366768" lane="-26324_0" pos="90.0100533127819" file="out.xml" freq="300" friendlyPos="True"/>
	<inductionLoop id="140366774" lane="25563_0" pos="61.2900575709787" file="out.xml" freq="300" friendlyPos="True"/>
	<inductionLoop id="140367701" lane="-6598_0" pos="149.858543840409" file="out.xml" freq="300" friendlyPos="True"/>
	<inductionLoop id="140375872" lane="-25233_0" pos="45.6376250245287" file="out.xml" freq="300" friendlyPos="True"/>
	<inductionLoop id="140380468" lane="-25297_0" pos="49.2736842062595" file="out.xml" freq="300" friendlyPos="True"/>
	<inductionLoop id="140383174" lane="33124_0" pos="85.1430249416596" file="out.xml" freq="300" friendlyPos="True"/>
	<inductionLoop id="140389754" lane="30001_0" pos="264.70092142197" file="out.xml" freq="300" friendlyPos="True"/>
	<inductionLoop id="140395098" lane="12783_0" pos="142.180535238139" file="out.xml" freq="300" friendlyPos="True"/>
	<inductionLoop id="140395966" lane="-11721_0" pos="139.597572089097" file="out.xml" freq="300" friendlyPos="True"/>
	<inductionLoop id="140397351" lane="27798_0" pos="1.72470906259039" file="out.xml" freq="300" friendlyPos="True"/>
	<inductionLoop id="140397401" lane="19989_0" pos="135.658754478393" file="out.xml" freq="300" friendlyPos="True"/>
	<inductionLoop id="140397454" lane="-2877_0" pos="43.6361275700142" file="out.xml" freq="300" friendlyPos="True"/>
	<inductionLoop id="140398906" lane="-25263_0" pos="77.4262437567532" file="out.xml" freq="300" friendlyPos="True"/>
	<inductionLoop id="140400990" lane="6583_0" pos="165.390378085397" file="out.xml" freq="300" friendlyPos="True"/>
	<inductionLoop id="140401951" lane="9593_0" pos="222.859693430624" file="out.xml" freq="300" friendlyPos="True"/>
	<inductionLoop id="140404792" lane="7286_0" pos="203.412162245664" file="out.xml" freq="300" friendlyPos="True"/>
	<inductionLoop id="140408891" lane="-6862_0" pos="80.1416913839402" file="out.xml" freq="300" friendlyPos="True"/>
	<inductionLoop id="140410335" lane="29717_0" pos="6.683301421923" file="out.xml" freq="300" friendlyPos="True"/>
	<inductionLoop id="140412140" lane="-4945_0" pos="243.681703056672" file="out.xml" freq="300" friendlyPos="True"/>
	<inductionLoop id="140414232" lane="-14184_0" pos="91.5442729364109" file="out.xml" freq="300" friendlyPos="True"/>
	<inductionLoop id="140414236" lane="11277_0" pos="129.733854602994" file="out.xml" freq="300" friendlyPos="True"/>
	<inductionLoop id="140416545" lane="14272_0" pos="19.2616591008899" file="out.xml" freq="300" friendlyPos="True"/>
	<inductionLoop id="140420956" lane="29248_0" pos="8.14165393608245" file="out.xml" freq="300" friendlyPos="True"/>
	<inductionLoop id="140422347" lane="6501_0" pos="250.177416619305" file="out.xml" freq="300" friendlyPos="True"/>
	<inductionLoop id="140423476" lane="-9664_0" pos="102.213973276062" file="out.xml" freq="300" friendlyPos="True"/>
	<inductionLoop id="140423478" lane="-9333_0" pos="8.56853521921421" file="out.xml" freq="300" friendlyPos="True"/>
	<inductionLoop id="140425025" lane="27418_0" pos="98.0905195251259" file="out.xml" freq="300" friendlyPos="True"/>
	<inductionLoop id="140430214" lane="29320_0" pos="57.8398305744261" file="out.xml" freq="300" friendlyPos="True"/>
	<inductionLoop id="140430332" lane="2450_1" pos="78.7439369713395" file="out.xml" freq="300" friendlyPos="True"/>
	<inductionLoop id="140431870" lane="-7771_0" pos="14.0738244262419" file="out.xml" freq="300" friendlyPos="True"/>
	<inductionLoop id="140433215" lane="13789_0" pos="174.387529106232" file="out.xml" freq="300" friendlyPos="True"/>
	<inductionLoop id="140433267" lane="8046_0" pos="260.243393958766" file="out.xml" freq="300" friendlyPos="True"/>
	<inductionLoop id="140434577" lane="-26871_0" pos="30.2370430156332" file="out.xml" freq="300" friendlyPos="True"/>
	<inductionLoop id="140438731" lane="-14212_0" pos="172.784118687034" file="out.xml" freq="300" friendlyPos="True"/>
	<inductionLoop id="140443478" lane="-8981_0" pos="0.615894417191127" file="out.xml" freq="300" friendlyPos="True"/>
	<inductionLoop id="140449768" lane="-6616_0" pos="29.388378355403" file="out.xml" freq="300" friendlyPos="True"/>
	<inductionLoop id="140454220" lane="11942_0" pos="101.907949741066" file="out.xml" freq="300" friendlyPos="True"/>
	<inductionLoop id="140455659" lane="6588_0" pos="144.495617277184" file="out.xml" freq="300" friendlyPos="True"/>
	<inductionLoop id="140458483" lane="6612_0" pos="136.560533959191" file="out.xml" freq="300" friendlyPos="True"/>
	<inductionLoop id="140462087" lane="-6617_0" pos="211.035183454705" file="out.xml" freq="300" friendlyPos="True"/>
	<inductionLoop id="140463713" lane="14292_0" pos="78.2449401124332" file="out.xml" freq="300" friendlyPos="True"/>
	<inductionLoop id="140464840" lane="1730_0" pos="590.407935284952" file="out.xml" freq="300" friendlyPos="True"/>
	<inductionLoop id="140466637" lane="-25139_0" pos="73.4003879275623" file="out.xml" freq="300" friendlyPos="True"/>
	<inductionLoop id="140467892" lane="-27577_0" pos="136.68830809266" file="out.xml" freq="300" friendlyPos="True"/>
	<inductionLoop id="140471003" lane="9098_0" pos="22.2510305529002" file="out.xml" freq="300" friendlyPos="True"/>
	<inductionLoop id="140478236" lane="15080_0" pos="37.6909072674963" file="out.xml" freq="300" friendlyPos="True"/>
	<inductionLoop id="140485067" lane="-8885_0" pos="52.7277101071177" file="out.xml" freq="300" friendlyPos="True"/>
	<inductionLoop id="140490116" lane="-27494_0" pos="268.576808344486" file="out.xml" freq="300" friendlyPos="True"/>
	<inductionLoop id="140491728" lane="-9054_0" pos="462.779988554542" file="out.xml" freq="300" friendlyPos="True"/>
	<inductionLoop id="140493918" lane="-30844_0" pos="11.0588117100472" file="out.xml" freq="300" friendlyPos="True"/>
	<inductionLoop id="140500224" lane="-6524_0" pos="568.606083489684" file="out.xml" freq="300" friendlyPos="True"/>
	<inductionLoop id="140504510" lane="-11660_0" pos="126.04986032308" file="out.xml" freq="300" friendlyPos="True"/>
	<inductionLoop id="140509484" lane="-27794_0" pos="37.1325904376277" file="out.xml" freq="300" friendlyPos="True"/>
	<inductionLoop id="140516633" lane="-9339_0" pos="24.8632894258923" file="out.xml" freq="300" friendlyPos="True"/>
	<inductionLoop id="140516817" lane="11197_0" pos="24.7032993785405" file="out.xml" freq="300" friendlyPos="True"/>
	<inductionLoop id="140517836" lane="-6677_0" pos="339.991833192415" file="out.xml" freq="300" friendlyPos="True"/>
	<inductionLoop id="140522998" lane="26912_0" pos="197.636525435882" file="out.xml" freq="300" friendlyPos="True"/>
	<inductionLoop id="140527774" lane="-7071_0" pos="70.8121755150026" file="out.xml" freq="300" friendlyPos="True"/>
	<inductionLoop id="140554804" lane="-9206_0" pos="310.490999492223" file="out.xml" freq="300" friendlyPos="True"/>
	<inductionLoop id="140564811" lane="27272_0" pos="75.6610241519787" file="out.xml" freq="300" friendlyPos="True"/>
	<inductionLoop id="140571147" lane="-38631_0" pos="5.01043304347299" file="out.xml" freq="300" friendlyPos="True"/>
	<inductionLoop id="140585088" lane="30393_0" pos="54.932237512963" file="out.xml" freq="300" friendlyPos="True"/>
	<inductionLoop id="140601320" lane="-25237_0" pos="50.2652242367936" file="out.xml" freq="300" friendlyPos="True"/>
	<inductionLoop id="140607058" lane="-8712_0" pos="3.69454498308794" file="out.xml" freq="300" friendlyPos="True"/>