<additional>
  <edgeData id="edgebased" freq="300" file="EdgeData.xml" />
</additional>
