<additional xmlns:xsi="http://www.w3.org/2001/XMLSchema-instance" xsi:noNamespaceSchemaLocation="http://sumo.dlr.de/xsd/additional_file.xsd">
    <vTypeDistribution id="passenger">
        <vType accel="3.000" carFollowModel="Krauss" decel="5.000" guiShape="passenger" id="passenger0" length="4.949" maxSpeed="80.000" minGap="1.500" sigma="0.347" speedFactor="0.940" tau="1.200" vClass="passenger"/>
        <vType accel="3.000" carFollowModel="Krauss" decel="5.000" guiShape="passenger" id="passenger1" length="5.462" maxSpeed="80.000" minGap="1.500" sigma="0.206" speedFactor="0.853" tau="1.200" vClass="passenger"/>
        <vType accel="3.000" carFollowModel="Krauss" decel="5.000" guiShape="passenger" id="passenger2" length="4.705" maxSpeed="80.000" minGap="1.500" sigma="0.244" speedFactor="1.068" tau="1.200" vClass="passenger"/>
        <vType accel="3.000" carFollowModel="Krauss" decel="5.000" guiShape="passenger" id="passenger3" length="5.061" maxSpeed="80.000" minGap="1.500" sigma="0.231" speedFactor="1.062" tau="1.200" vClass="passenger"/>
        <vType accel="3.000" carFollowModel="Krauss" decel="5.000" guiShape="passenger" id="passenger4" length="5.136" maxSpeed="80.000" minGap="1.500" sigma="0.361" speedFactor="1.181" tau="1.200" vClass="passenger"/>
        <vType accel="3.000" carFollowModel="Krauss" decel="5.000" guiShape="passenger" id="passenger5" length="5.070" maxSpeed="80.000" minGap="1.500" sigma="0.310" speedFactor="1.157" tau="1.200" vClass="passenger"/>
        <vType accel="3.000" carFollowModel="Krauss" decel="5.000" guiShape="passenger" id="passenger6" length="5.196" maxSpeed="80.000" minGap="1.500" sigma="0.341" speedFactor="1.176" tau="1.200" vClass="passenger"/>
        <vType accel="3.000" carFollowModel="Krauss" decel="5.000" guiShape="passenger" id="passenger7" length="4.698" maxSpeed="80.000" minGap="1.500" sigma="0.247" speedFactor="0.953" tau="1.200" vClass="passenger"/>
        <vType accel="3.000" carFollowModel="Krauss" decel="5.000" guiShape="passenger" id="passenger8" length="4.710" maxSpeed="80.000" minGap="1.500" sigma="0.274" speedFactor="1.044" tau="1.200" vClass="passenger"/>
        <vType accel="3.000" carFollowModel="Krauss" decel="5.000" guiShape="passenger" id="passenger9" length="4.764" maxSpeed="80.000" minGap="1.500" sigma="0.346" speedFactor="1.027" tau="1.200" vClass="passenger"/>
        <vType accel="3.000" carFollowModel="Krauss" decel="5.000" guiShape="passenger" id="passenger10" length="4.714" maxSpeed="80.000" minGap="1.500" sigma="0.369" speedFactor="1.037" tau="1.200" vClass="passenger"/>
        <vType accel="3.000" carFollowModel="Krauss" decel="5.000" guiShape="passenger" id="passenger11" length="5.023" maxSpeed="80.000" minGap="1.500" sigma="0.254" speedFactor="0.859" tau="1.200" vClass="passenger"/>
        <vType accel="3.000" carFollowModel="Krauss" decel="5.000" guiShape="passenger" id="passenger12" length="5.088" maxSpeed="80.000" minGap="1.500" sigma="0.383" speedFactor="1.053" tau="1.200" vClass="passenger"/>
        <vType accel="3.000" carFollowModel="Krauss" decel="5.000" guiShape="passenger" id="passenger13" length="4.881" maxSpeed="80.000" minGap="1.500" sigma="0.253" speedFactor="0.881" tau="1.200" vClass="passenger"/>
        <vType accel="3.000" carFollowModel="Krauss" decel="5.000" guiShape="passenger" id="passenger14" length="5.184" maxSpeed="80.000" minGap="1.500" sigma="0.400" speedFactor="0.973" tau="1.200" vClass="passenger"/>
        <vType accel="3.000" carFollowModel="Krauss" decel="5.000" guiShape="passenger" id="passenger15" length="4.904" maxSpeed="80.000" minGap="1.500" sigma="0.284" speedFactor="1.126" tau="1.200" vClass="passenger"/>
        <vType accel="3.000" carFollowModel="Krauss" decel="5.000" guiShape="passenger" id="passenger16" length="4.658" maxSpeed="80.000" minGap="1.500" sigma="0.253" speedFactor="1.081" tau="1.200" vClass="passenger"/>
        <vType accel="3.000" carFollowModel="Krauss" decel="5.000" guiShape="passenger" id="passenger17" length="4.954" maxSpeed="80.000" minGap="1.500" sigma="0.391" speedFactor="0.975" tau="1.200" vClass="passenger"/>
        <vType accel="3.000" carFollowModel="Krauss" decel="5.000" guiShape="passenger" id="passenger18" length="5.075" maxSpeed="80.000" minGap="1.500" sigma="0.383" speedFactor="1.000" tau="1.200" vClass="passenger"/>
        <vType accel="3.000" carFollowModel="Krauss" decel="5.000" guiShape="passenger" id="passenger19" length="5.081" maxSpeed="80.000" minGap="1.500" sigma="0.231" speedFactor="1.073" tau="1.200" vClass="passenger"/>
        <vType accel="3.000" carFollowModel="Krauss" decel="5.000" guiShape="passenger" id="passenger20" length="5.096" maxSpeed="80.000" minGap="1.500" sigma="0.200" speedFactor="1.122" tau="1.200" vClass="passenger"/>
        <vType accel="3.000" carFollowModel="Krauss" decel="5.000" guiShape="passenger" id="passenger21" length="5.064" maxSpeed="80.000" minGap="1.500" sigma="0.352" speedFactor="0.997" tau="1.200" vClass="passenger"/>
        <vType accel="3.000" carFollowModel="Krauss" decel="5.000" guiShape="passenger" id="passenger22" length="5.005" maxSpeed="80.000" minGap="1.500" sigma="0.253" speedFactor="0.989" tau="1.200" vClass="passenger"/>
        <vType accel="3.000" carFollowModel="Krauss" decel="5.000" guiShape="passenger" id="passenger23" length="5.122" maxSpeed="80.000" minGap="1.500" sigma="0.346" speedFactor="0.871" tau="1.200" vClass="passenger"/>
        <vType accel="3.000" carFollowModel="Krauss" decel="5.000" guiShape="passenger" id="passenger24" length="4.751" maxSpeed="80.000" minGap="1.500" sigma="0.224" speedFactor="0.974" tau="1.200" vClass="passenger"/>
        <vType accel="3.000" carFollowModel="Krauss" decel="5.000" guiShape="passenger" id="passenger25" length="4.757" maxSpeed="80.000" minGap="1.500" sigma="0.244" speedFactor="1.024" tau="1.200" vClass="passenger"/>
        <vType accel="3.000" carFollowModel="Krauss" decel="5.000" guiShape="passenger" id="passenger26" length="4.501" maxSpeed="80.000" minGap="1.500" sigma="0.243" speedFactor="0.837" tau="1.200" vClass="passenger"/>
        <vType accel="3.000" carFollowModel="Krauss" decel="5.000" guiShape="passenger" id="passenger27" length="4.946" maxSpeed="80.000" minGap="1.500" sigma="0.238" speedFactor="1.304" tau="1.200" vClass="passenger"/>
        <vType accel="3.000" carFollowModel="Krauss" decel="5.000" guiShape="passenger" id="passenger28" length="4.657" maxSpeed="80.000" minGap="1.500" sigma="0.346" speedFactor="0.970" tau="1.200" vClass="passenger"/>
        <vType accel="3.000" carFollowModel="Krauss" decel="5.000" guiShape="passenger" id="passenger29" length="4.669" maxSpeed="80.000" minGap="1.500" sigma="0.250" speedFactor="0.761" tau="1.200" vClass="passenger"/>
        <vType accel="3.000" carFollowModel="Krauss" decel="5.000" guiShape="passenger" id="passenger30" length="4.707" maxSpeed="80.000" minGap="1.500" sigma="0.250" speedFactor="0.978" tau="1.200" vClass="passenger"/>
        <vType accel="3.000" carFollowModel="Krauss" decel="5.000" guiShape="passenger" id="passenger31" length="5.161" maxSpeed="80.000" minGap="1.500" sigma="0.210" speedFactor="1.165" tau="1.200" vClass="passenger"/>
        <vType accel="3.000" carFollowModel="Krauss" decel="5.000" guiShape="passenger" id="passenger32" length="5.044" maxSpeed="80.000" minGap="1.500" sigma="0.280" speedFactor="0.996" tau="1.200" vClass="passenger"/>
        <vType accel="3.000" carFollowModel="Krauss" decel="5.000" guiShape="passenger" id="passenger33" length="4.656" maxSpeed="80.000" minGap="1.500" sigma="0.285" speedFactor="1.107" tau="1.200" vClass="passenger"/>
        <vType accel="3.000" carFollowModel="Krauss" decel="5.000" guiShape="passenger" id="passenger34" length="4.968" maxSpeed="80.000" minGap="1.500" sigma="0.394" speedFactor="0.899" tau="1.200" vClass="passenger"/>
        <vType accel="3.000" carFollowModel="Krauss" decel="5.000" guiShape="passenger" id="passenger35" length="4.959" maxSpeed="80.000" minGap="1.500" sigma="0.317" speedFactor="1.054" tau="1.200" vClass="passenger"/>
        <vType accel="3.000" carFollowModel="Krauss" decel="5.000" guiShape="passenger" id="passenger36" length="4.907" maxSpeed="80.000" minGap="1.500" sigma="0.319" speedFactor="0.894" tau="1.200" vClass="passenger"/>
        <vType accel="3.000" carFollowModel="Krauss" decel="5.000" guiShape="passenger" id="passenger37" length="4.979" maxSpeed="80.000" minGap="1.500" sigma="0.324" speedFactor="0.871" tau="1.200" vClass="passenger"/>
        <vType accel="3.000" carFollowModel="Krauss" decel="5.000" guiShape="passenger" id="passenger38" length="4.833" maxSpeed="80.000" minGap="1.500" sigma="0.241" speedFactor="1.072" tau="1.200" vClass="passenger"/>
        <vType accel="3.000" carFollowModel="Krauss" decel="5.000" guiShape="passenger" id="passenger39" length="4.997" maxSpeed="80.000" minGap="1.500" sigma="0.260" speedFactor="0.935" tau="1.200" vClass="passenger"/>
        <vType accel="3.000" carFollowModel="Krauss" decel="5.000" guiShape="passenger" id="passenger40" length="4.646" maxSpeed="80.000" minGap="1.500" sigma="0.400" speedFactor="0.838" tau="1.200" vClass="passenger"/>
        <vType accel="3.000" carFollowModel="Krauss" decel="5.000" guiShape="passenger" id="passenger41" length="4.766" maxSpeed="80.000" minGap="1.500" sigma="0.232" speedFactor="1.124" tau="1.200" vClass="passenger"/>
        <vType accel="3.000" carFollowModel="Krauss" decel="5.000" guiShape="passenger" id="passenger42" length="5.286" maxSpeed="80.000" minGap="1.500" sigma="0.333" speedFactor="1.093" tau="1.200" vClass="passenger"/>
        <vType accel="3.000" carFollowModel="Krauss" decel="5.000" guiShape="passenger" id="passenger43" length="4.925" maxSpeed="80.000" minGap="1.500" sigma="0.241" speedFactor="1.076" tau="1.200" vClass="passenger"/>
        <vType accel="3.000" carFollowModel="Krauss" decel="5.000" guiShape="passenger" id="passenger44" length="4.963" maxSpeed="80.000" minGap="1.500" sigma="0.369" speedFactor="0.975" tau="1.200" vClass="passenger"/>
        <vType accel="3.000" carFollowModel="Krauss" decel="5.000" guiShape="passenger" id="passenger45" length="4.657" maxSpeed="80.000" minGap="1.500" sigma="0.252" speedFactor="1.154" tau="1.200" vClass="passenger"/>
        <vType accel="3.000" carFollowModel="Krauss" decel="5.000" guiShape="passenger" id="passenger46" length="5.085" maxSpeed="80.000" minGap="1.500" sigma="0.215" speedFactor="0.985" tau="1.200" vClass="passenger"/>
        <vType accel="3.000" carFollowModel="Krauss" decel="5.000" guiShape="passenger" id="passenger47" length="4.995" maxSpeed="80.000" minGap="1.500" sigma="0.225" speedFactor="1.020" tau="1.200" vClass="passenger"/>
        <vType accel="3.000" carFollowModel="Krauss" decel="5.000" guiShape="passenger" id="passenger48" length="5.073" maxSpeed="80.000" minGap="1.500" sigma="0.356" speedFactor="0.943" tau="1.200" vClass="passenger"/>
        <vType accel="3.000" carFollowModel="Krauss" decel="5.000" guiShape="passenger" id="passenger49" length="5.122" maxSpeed="80.000" minGap="1.500" sigma="0.386" speedFactor="1.029" tau="1.200" vClass="passenger"/>
        <vType accel="3.000" carFollowModel="Krauss" decel="5.000" guiShape="passenger" id="passenger50" length="5.045" maxSpeed="80.000" minGap="1.500" sigma="0.374" speedFactor="1.066" tau="1.200" vClass="passenger"/>
        <vType accel="3.000" carFollowModel="Krauss" decel="5.000" guiShape="passenger" id="passenger51" length="5.058" maxSpeed="80.000" minGap="1.500" sigma="0.261" speedFactor="1.121" tau="1.200" vClass="passenger"/>
        <vType accel="3.000" carFollowModel="Krauss" decel="5.000" guiShape="passenger" id="passenger52" length="5.031" maxSpeed="80.000" minGap="1.500" sigma="0.393" speedFactor="0.739" tau="1.200" vClass="passenger"/>
        <vType accel="3.000" carFollowModel="Krauss" decel="5.000" guiShape="passenger" id="passenger53" length="4.689" maxSpeed="80.000" minGap="1.500" sigma="0.223" speedFactor="1.123" tau="1.200" vClass="passenger"/>
        <vType accel="3.000" carFollowModel="Krauss" decel="5.000" guiShape="passenger" id="passenger54" length="5.116" maxSpeed="80.000" minGap="1.500" sigma="0.346" speedFactor="0.857" tau="1.200" vClass="passenger"/>
        <vType accel="3.000" carFollowModel="Krauss" decel="5.000" guiShape="passenger" id="passenger55" length="4.738" maxSpeed="80.000" minGap="1.500" sigma="0.315" speedFactor="1.004" tau="1.200" vClass="passenger"/>
        <vType accel="3.000" carFollowModel="Krauss" decel="5.000" guiShape="passenger" id="passenger56" length="4.611" maxSpeed="80.000" minGap="1.500" sigma="0.348" speedFactor="1.028" tau="1.200" vClass="passenger"/>
        <vType accel="3.000" carFollowModel="Krauss" decel="5.000" guiShape="passenger" id="passenger57" length="4.992" maxSpeed="80.000" minGap="1.500" sigma="0.370" speedFactor="0.949" tau="1.200" vClass="passenger"/>
        <vType accel="3.000" carFollowModel="Krauss" decel="5.000" guiShape="passenger" id="passenger58" length="5.008" maxSpeed="80.000" minGap="1.500" sigma="0.280" speedFactor="0.934" tau="1.200" vClass="passenger"/>
        <vType accel="3.000" carFollowModel="Krauss" decel="5.000" guiShape="passenger" id="passenger59" length="4.820" maxSpeed="80.000" minGap="1.500" sigma="0.335" speedFactor="0.725" tau="1.200" vClass="passenger"/>
        <vType accel="3.000" carFollowModel="Krauss" decel="5.000" guiShape="passenger" id="passenger60" length="5.259" maxSpeed="80.000" minGap="1.500" sigma="0.200" speedFactor="0.909" tau="1.200" vClass="passenger"/>
        <vType accel="3.000" carFollowModel="Krauss" decel="5.000" guiShape="passenger" id="passenger61" length="4.772" maxSpeed="80.000" minGap="1.500" sigma="0.293" speedFactor="1.048" tau="1.200" vClass="passenger"/>
        <vType accel="3.000" carFollowModel="Krauss" decel="5.000" guiShape="passenger" id="passenger62" length="4.875" maxSpeed="80.000" minGap="1.500" sigma="0.359" speedFactor="0.944" tau="1.200" vClass="passenger"/>
        <vType accel="3.000" carFollowModel="Krauss" decel="5.000" guiShape="passenger" id="passenger63" length="4.914" maxSpeed="80.000" minGap="1.500" sigma="0.350" speedFactor="0.813" tau="1.200" vClass="passenger"/>
        <vType accel="3.000" carFollowModel="Krauss" decel="5.000" guiShape="passenger" id="passenger64" length="4.976" maxSpeed="80.000" minGap="1.500" sigma="0.370" speedFactor="0.900" tau="1.200" vClass="passenger"/>
        <vType accel="3.000" carFollowModel="Krauss" decel="5.000" guiShape="passenger" id="passenger65" length="4.650" maxSpeed="80.000" minGap="1.500" sigma="0.339" speedFactor="1.033" tau="1.200" vClass="passenger"/>
        <vType accel="3.000" carFollowModel="Krauss" decel="5.000" guiShape="passenger" id="passenger66" length="4.897" maxSpeed="80.000" minGap="1.500" sigma="0.221" speedFactor="1.225" tau="1.200" vClass="passenger"/>
        <vType accel="3.000" carFollowModel="Krauss" decel="5.000" guiShape="passenger" id="passenger67" length="4.869" maxSpeed="80.000" minGap="1.500" sigma="0.210" speedFactor="1.196" tau="1.200" vClass="passenger"/>
        <vType accel="3.000" carFollowModel="Krauss" decel="5.000" guiShape="passenger" id="passenger68" length="4.825" maxSpeed="80.000" minGap="1.500" sigma="0.378" speedFactor="1.393" tau="1.200" vClass="passenger"/>
        <vType accel="3.000" carFollowModel="Krauss" decel="5.000" guiShape="passenger" id="passenger69" length="5.038" maxSpeed="80.000" minGap="1.500" sigma="0.310" speedFactor="1.006" tau="1.200" vClass="passenger"/>
        <vType accel="3.000" carFollowModel="Krauss" decel="5.000" guiShape="passenger" id="passenger70" length="4.888" maxSpeed="80.000" minGap="1.500" sigma="0.353" speedFactor="0.856" tau="1.200" vClass="passenger"/>
        <vType accel="3.000" carFollowModel="Krauss" decel="5.000" guiShape="passenger" id="passenger71" length="4.920" maxSpeed="80.000" minGap="1.500" sigma="0.257" speedFactor="0.950" tau="1.200" vClass="passenger"/>
        <vType accel="3.000" carFollowModel="Krauss" decel="5.000" guiShape="passenger" id="passenger72" length="4.785" maxSpeed="80.000" minGap="1.500" sigma="0.246" speedFactor="1.010" tau="1.200" vClass="passenger"/>
        <vType accel="3.000" carFollowModel="Krauss" decel="5.000" guiShape="passenger" id="passenger73" length="5.127" maxSpeed="80.000" minGap="1.500" sigma="0.309" speedFactor="0.849" tau="1.200" vClass="passenger"/>
        <vType accel="3.000" carFollowModel="Krauss" decel="5.000" guiShape="passenger" id="passenger74" length="4.864" maxSpeed="80.000" minGap="1.500" sigma="0.317" speedFactor="0.827" tau="1.200" vClass="passenger"/>
        <vType accel="3.000" carFollowModel="Krauss" decel="5.000" guiShape="passenger" id="passenger75" length="5.368" maxSpeed="80.000" minGap="1.500" sigma="0.201" speedFactor="1.088" tau="1.200" vClass="passenger"/>
        <vType accel="3.000" carFollowModel="Krauss" decel="5.000" guiShape="passenger" id="passenger76" length="4.694" maxSpeed="80.000" minGap="1.500" sigma="0.309" speedFactor="0.934" tau="1.200" vClass="passenger"/>
        <vType accel="3.000" carFollowModel="Krauss" decel="5.000" guiShape="passenger" id="passenger77" length="4.945" maxSpeed="80.000" minGap="1.500" sigma="0.206" speedFactor="0.898" tau="1.200" vClass="passenger"/>
        <vType accel="3.000" carFollowModel="Krauss" decel="5.000" guiShape="passenger" id="passenger78" length="4.725" maxSpeed="80.000" minGap="1.500" sigma="0.293" speedFactor="0.976" tau="1.200" vClass="passenger"/>
        <vType accel="3.000" carFollowModel="Krauss" decel="5.000" guiShape="passenger" id="passenger79" length="4.562" maxSpeed="80.000" minGap="1.500" sigma="0.313" speedFactor="0.839" tau="1.200" vClass="passenger"/>
        <vType accel="3.000" carFollowModel="Krauss" decel="5.000" guiShape="passenger" id="passenger80" length="4.668" maxSpeed="80.000" minGap="1.500" sigma="0.242" speedFactor="0.851" tau="1.200" vClass="passenger"/>
        <vType accel="3.000" carFollowModel="Krauss" decel="5.000" guiShape="passenger" id="passenger81" length="4.651" maxSpeed="80.000" minGap="1.500" sigma="0.366" speedFactor="0.900" tau="1.200" vClass="passenger"/>
        <vType accel="3.000" carFollowModel="Krauss" decel="5.000" guiShape="passenger" id="passenger82" length="4.807" maxSpeed="80.000" minGap="1.500" sigma="0.330" speedFactor="1.141" tau="1.200" vClass="passenger"/>
        <vType accel="3.000" carFollowModel="Krauss" decel="5.000" guiShape="passenger" id="passenger83" length="4.764" maxSpeed="80.000" minGap="1.500" sigma="0.244" speedFactor="1.080" tau="1.200" vClass="passenger"/>
        <vType accel="3.000" carFollowModel="Krauss" decel="5.000" guiShape="passenger" id="passenger84" length="5.194" maxSpeed="80.000" minGap="1.500" sigma="0.350" speedFactor="0.826" tau="1.200" vClass="passenger"/>
        <vType accel="3.000" carFollowModel="Krauss" decel="5.000" guiShape="passenger" id="passenger85" length="4.663" maxSpeed="80.000" minGap="1.500" sigma="0.215" speedFactor="0.925" tau="1.200" vClass="passenger"/>
        <vType accel="3.000" carFollowModel="Krauss" decel="5.000" guiShape="passenger" id="passenger86" length="5.075" maxSpeed="80.000" minGap="1.500" sigma="0.224" speedFactor="1.180" tau="1.200" vClass="passenger"/>
        <vType accel="3.000" carFollowModel="Krauss" decel="5.000" guiShape="passenger" id="passenger87" length="4.808" maxSpeed="80.000" minGap="1.500" sigma="0.268" speedFactor="0.946" tau="1.200" vClass="passenger"/>
        <vType accel="3.000" carFollowModel="Krauss" decel="5.000" guiShape="passenger" id="passenger88" length="5.172" maxSpeed="80.000" minGap="1.500" sigma="0.347" speedFactor="1.076" tau="1.200" vClass="passenger"/>
        <vType accel="3.000" carFollowModel="Krauss" decel="5.000" guiShape="passenger" id="passenger89" length="5.119" maxSpeed="80.000" minGap="1.500" sigma="0.297" speedFactor="1.137" tau="1.200" vClass="passenger"/>
        <vType accel="3.000" carFollowModel="Krauss" decel="5.000" guiShape="passenger" id="passenger90" length="4.818" maxSpeed="80.000" minGap="1.500" sigma="0.366" speedFactor="0.678" tau="1.200" vClass="passenger"/>
        <vType accel="3.000" carFollowModel="Krauss" decel="5.000" guiShape="passenger" id="passenger91" length="4.736" maxSpeed="80.000" minGap="1.500" sigma="0.206" speedFactor="1.037" tau="1.200" vClass="passenger"/>
        <vType accel="3.000" carFollowModel="Krauss" decel="5.000" guiShape="passenger" id="passenger92" length="5.047" maxSpeed="80.000" minGap="1.500" sigma="0.268" speedFactor="0.707" tau="1.200" vClass="passenger"/>
        <vType accel="3.000" carFollowModel="Krauss" decel="5.000" guiShape="passenger" id="passenger93" length="5.337" maxSpeed="80.000" minGap="1.500" sigma="0.352" speedFactor="1.089" tau="1.200" vClass="passenger"/>
        <vType accel="3.000" carFollowModel="Krauss" decel="5.000" guiShape="passenger" id="passenger94" length="5.085" maxSpeed="80.000" minGap="1.500" sigma="0.219" speedFactor="0.991" tau="1.200" vClass="passenger"/>
        <vType accel="3.000" carFollowModel="Krauss" decel="5.000" guiShape="passenger" id="passenger95" length="4.590" maxSpeed="80.000" minGap="1.500" sigma="0.295" speedFactor="0.905" tau="1.200" vClass="passenger"/>
        <vType accel="3.000" carFollowModel="Krauss" decel="5.000" guiShape="passenger" id="passenger96" length="4.918" maxSpeed="80.000" minGap="1.500" sigma="0.341" speedFactor="1.076" tau="1.200" vClass="passenger"/>
        <vType accel="3.000" carFollowModel="Krauss" decel="5.000" guiShape="passenger" id="passenger97" length="4.795" maxSpeed="80.000" minGap="1.500" sigma="0.224" speedFactor="0.903" tau="1.200" vClass="passenger"/>
        <vType accel="3.000" carFollowModel="Krauss" decel="5.000" guiShape="passenger" id="passenger98" length="4.952" maxSpeed="80.000" minGap="1.500" sigma="0.297" speedFactor="0.917" tau="1.200" vClass="passenger"/>
        <vType accel="3.000" carFollowModel="Krauss" decel="5.000" guiShape="passenger" id="passenger99" length="4.912" maxSpeed="80.000" minGap="1.500" sigma="0.245" speedFactor="0.898" tau="1.200" vClass="passenger"/>
    </vTypeDistribution>
</additional>
