<additional xmlns:xsi="http://www.w3.org/2001/XMLSchema-instance" xsi:noNamespaceSchemaLocation="http://sumo.dlr.de/xsd/additional_file.xsd">
    <vTypeDistribution id="passenger">
        <vType accel="3.000" carFollowModel="Krauss" decel="5.000" guiShape="passenger" id="passenger0" length="4.949" maxSpeed="80.000" minGap="1.500" sigma="0.855" speedFactor="normc(1,0.11,0.2,2)" tau="1.300" vClass="passenger"/>
        <vType accel="3.000" carFollowModel="Krauss" decel="5.000" guiShape="passenger" id="passenger1" length="4.540" maxSpeed="80.000" minGap="1.500" sigma="0.935" speedFactor="normc(1,0.11,0.2,2)" tau="1.300" vClass="passenger"/>
        <vType accel="3.000" carFollowModel="Krauss" decel="5.000" guiShape="passenger" id="passenger2" length="4.872" maxSpeed="80.000" minGap="1.500" sigma="0.844" speedFactor="normc(1,0.11,0.2,2)" tau="1.300" vClass="passenger"/>
        <vType accel="3.000" carFollowModel="Krauss" decel="5.000" guiShape="passenger" id="passenger3" length="4.902" maxSpeed="80.000" minGap="1.500" sigma="0.840" speedFactor="normc(1,0.11,0.2,2)" tau="1.300" vClass="passenger"/>
        <vType accel="3.000" carFollowModel="Krauss" decel="5.000" guiShape="passenger" id="passenger4" length="5.013" maxSpeed="80.000" minGap="1.500" sigma="0.844" speedFactor="normc(1,0.11,0.2,2)" tau="1.300" vClass="passenger"/>
        <vType accel="3.000" carFollowModel="Krauss" decel="5.000" guiShape="passenger" id="passenger5" length="5.061" maxSpeed="80.000" minGap="1.500" sigma="0.801" speedFactor="normc(1,0.11,0.2,2)" tau="1.300" vClass="passenger"/>
        <vType accel="3.000" carFollowModel="Krauss" decel="5.000" guiShape="passenger" id="passenger6" length="5.248" maxSpeed="80.000" minGap="1.500" sigma="0.868" speedFactor="normc(1,0.11,0.2,2)" tau="1.300" vClass="passenger"/>
        <vType accel="3.000" carFollowModel="Krauss" decel="5.000" guiShape="passenger" id="passenger7" length="4.838" maxSpeed="80.000" minGap="1.500" sigma="0.819" speedFactor="normc(1,0.11,0.2,2)" tau="1.300" vClass="passenger"/>
        <vType accel="3.000" carFollowModel="Krauss" decel="5.000" guiShape="passenger" id="passenger8" length="5.201" maxSpeed="80.000" minGap="1.500" sigma="0.961" speedFactor="normc(1,0.11,0.2,2)" tau="1.300" vClass="passenger"/>
        <vType accel="3.000" carFollowModel="Krauss" decel="5.000" guiShape="passenger" id="passenger9" length="5.070" maxSpeed="80.000" minGap="1.500" sigma="0.995" speedFactor="normc(1,0.11,0.2,2)" tau="1.300" vClass="passenger"/>
        <vType accel="3.000" carFollowModel="Krauss" decel="5.000" guiShape="passenger" id="passenger10" length="4.807" maxSpeed="80.000" minGap="1.500" sigma="0.966" speedFactor="normc(1,0.11,0.2,2)" tau="1.300" vClass="passenger"/>
        <vType accel="3.000" carFollowModel="Krauss" decel="5.000" guiShape="passenger" id="passenger11" length="5.194" maxSpeed="80.000" minGap="1.500" sigma="0.915" speedFactor="normc(1,0.11,0.2,2)" tau="1.300" vClass="passenger"/>
        <vType accel="3.000" carFollowModel="Krauss" decel="5.000" guiShape="passenger" id="passenger12" length="4.974" maxSpeed="80.000" minGap="1.500" sigma="0.846" speedFactor="normc(1,0.11,0.2,2)" tau="1.300" vClass="passenger"/>
        <vType accel="3.000" carFollowModel="Krauss" decel="5.000" guiShape="passenger" id="passenger13" length="4.821" maxSpeed="80.000" minGap="1.500" sigma="0.847" speedFactor="normc(1,0.11,0.2,2)" tau="1.300" vClass="passenger"/>
        <vType accel="3.000" carFollowModel="Krauss" decel="5.000" guiShape="passenger" id="passenger14" length="4.710" maxSpeed="80.000" minGap="1.500" sigma="0.927" speedFactor="normc(1,0.11,0.2,2)" tau="1.300" vClass="passenger"/>
        <vType accel="3.000" carFollowModel="Krauss" decel="5.000" guiShape="passenger" id="passenger15" length="4.826" maxSpeed="80.000" minGap="1.500" sigma="0.842" speedFactor="normc(1,0.11,0.2,2)" tau="1.300" vClass="passenger"/>
        <vType accel="3.000" carFollowModel="Krauss" decel="5.000" guiShape="passenger" id="passenger16" length="5.030" maxSpeed="80.000" minGap="1.500" sigma="0.834" speedFactor="normc(1,0.11,0.2,2)" tau="1.300" vClass="passenger"/>
        <vType accel="3.000" carFollowModel="Krauss" decel="5.000" guiShape="passenger" id="passenger17" length="4.994" maxSpeed="80.000" minGap="1.500" sigma="0.876" speedFactor="normc(1,0.11,0.2,2)" tau="1.300" vClass="passenger"/>
        <vType accel="3.000" carFollowModel="Krauss" decel="5.000" guiShape="passenger" id="passenger18" length="4.962" maxSpeed="80.000" minGap="1.500" sigma="0.969" speedFactor="normc(1,0.11,0.2,2)" tau="1.300" vClass="passenger"/>
        <vType accel="3.000" carFollowModel="Krauss" decel="5.000" guiShape="passenger" id="passenger19" length="5.023" maxSpeed="80.000" minGap="1.500" sigma="0.806" speedFactor="normc(1,0.11,0.2,2)" tau="1.300" vClass="passenger"/>
        <vType accel="3.000" carFollowModel="Krauss" decel="5.000" guiShape="passenger" id="passenger20" length="4.814" maxSpeed="80.000" minGap="1.500" sigma="0.842" speedFactor="normc(1,0.11,0.2,2)" tau="1.300" vClass="passenger"/>
        <vType accel="3.000" carFollowModel="Krauss" decel="5.000" guiShape="passenger" id="passenger21" length="4.715" maxSpeed="80.000" minGap="1.500" sigma="0.879" speedFactor="normc(1,0.11,0.2,2)" tau="1.300" vClass="passenger"/>
        <vType accel="3.000" carFollowModel="Krauss" decel="5.000" guiShape="passenger" id="passenger22" length="5.163" maxSpeed="80.000" minGap="1.500" sigma="0.853" speedFactor="normc(1,0.11,0.2,2)" tau="1.300" vClass="passenger"/>
        <vType accel="3.000" carFollowModel="Krauss" decel="5.000" guiShape="passenger" id="passenger23" length="4.702" maxSpeed="80.000" minGap="1.500" sigma="0.853" speedFactor="normc(1,0.11,0.2,2)" tau="1.300" vClass="passenger"/>
        <vType accel="3.000" carFollowModel="Krauss" decel="5.000" guiShape="passenger" id="passenger24" length="5.184" maxSpeed="80.000" minGap="1.500" sigma="0.880" speedFactor="normc(1,0.11,0.2,2)" tau="1.300" vClass="passenger"/>
        <vType accel="3.000" carFollowModel="Krauss" decel="5.000" guiShape="passenger" id="passenger25" length="4.904" maxSpeed="80.000" minGap="1.500" sigma="0.809" speedFactor="normc(1,0.11,0.2,2)" tau="1.300" vClass="passenger"/>
        <vType accel="3.000" carFollowModel="Krauss" decel="5.000" guiShape="passenger" id="passenger26" length="4.541" maxSpeed="80.000" minGap="1.500" sigma="0.958" speedFactor="normc(1,0.11,0.2,2)" tau="1.300" vClass="passenger"/>
        <vType accel="3.000" carFollowModel="Krauss" decel="5.000" guiShape="passenger" id="passenger27" length="4.871" maxSpeed="80.000" minGap="1.500" sigma="0.876" speedFactor="normc(1,0.11,0.2,2)" tau="1.300" vClass="passenger"/>
        <vType accel="3.000" carFollowModel="Krauss" decel="5.000" guiShape="passenger" id="passenger28" length="5.035" maxSpeed="80.000" minGap="1.500" sigma="0.853" speedFactor="normc(1,0.11,0.2,2)" tau="1.300" vClass="passenger"/>
        <vType accel="3.000" carFollowModel="Krauss" decel="5.000" guiShape="passenger" id="passenger29" length="4.954" maxSpeed="80.000" minGap="1.500" sigma="0.887" speedFactor="normc(1,0.11,0.2,2)" tau="1.300" vClass="passenger"/>
        <vType accel="3.000" carFollowModel="Krauss" decel="5.000" guiShape="passenger" id="passenger30" length="4.556" maxSpeed="80.000" minGap="1.500" sigma="0.975" speedFactor="normc(1,0.11,0.2,2)" tau="1.300" vClass="passenger"/>
        <vType accel="3.000" carFollowModel="Krauss" decel="5.000" guiShape="passenger" id="passenger31" length="4.737" maxSpeed="80.000" minGap="1.500" sigma="0.836" speedFactor="normc(1,0.11,0.2,2)" tau="1.300" vClass="passenger"/>
        <vType accel="3.000" carFollowModel="Krauss" decel="5.000" guiShape="passenger" id="passenger32" length="4.708" maxSpeed="80.000" minGap="1.500" sigma="0.922" speedFactor="normc(1,0.11,0.2,2)" tau="1.300" vClass="passenger"/>
        <vType accel="3.000" carFollowModel="Krauss" decel="5.000" guiShape="passenger" id="passenger33" length="4.961" maxSpeed="80.000" minGap="1.500" sigma="0.906" speedFactor="normc(1,0.11,0.2,2)" tau="1.300" vClass="passenger"/>
        <vType accel="3.000" carFollowModel="Krauss" decel="5.000" guiShape="passenger" id="passenger34" length="4.830" maxSpeed="80.000" minGap="1.500" sigma="0.976" speedFactor="normc(1,0.11,0.2,2)" tau="1.300" vClass="passenger"/>
        <vType accel="3.000" carFollowModel="Krauss" decel="5.000" guiShape="passenger" id="passenger35" length="4.895" maxSpeed="80.000" minGap="1.500" sigma="0.952" speedFactor="normc(1,0.11,0.2,2)" tau="1.300" vClass="passenger"/>
        <vType accel="3.000" carFollowModel="Krauss" decel="5.000" guiShape="passenger" id="passenger36" length="5.005" maxSpeed="80.000" minGap="1.500" sigma="0.895" speedFactor="normc(1,0.11,0.2,2)" tau="1.300" vClass="passenger"/>
        <vType accel="3.000" carFollowModel="Krauss" decel="5.000" guiShape="passenger" id="passenger37" length="4.923" maxSpeed="80.000" minGap="1.500" sigma="0.974" speedFactor="normc(1,0.11,0.2,2)" tau="1.300" vClass="passenger"/>
        <vType accel="3.000" carFollowModel="Krauss" decel="5.000" guiShape="passenger" id="passenger38" length="4.867" maxSpeed="80.000" minGap="1.500" sigma="0.908" speedFactor="normc(1,0.11,0.2,2)" tau="1.300" vClass="passenger"/>
        <vType accel="3.000" carFollowModel="Krauss" decel="5.000" guiShape="passenger" id="passenger39" length="4.999" maxSpeed="80.000" minGap="1.500" sigma="0.862" speedFactor="normc(1,0.11,0.2,2)" tau="1.300" vClass="passenger"/>
        <vType accel="3.000" carFollowModel="Krauss" decel="5.000" guiShape="passenger" id="passenger40" length="4.856" maxSpeed="80.000" minGap="1.500" sigma="0.824" speedFactor="normc(1,0.11,0.2,2)" tau="1.300" vClass="passenger"/>
        <vType accel="3.000" carFollowModel="Krauss" decel="5.000" guiShape="passenger" id="passenger41" length="4.757" maxSpeed="80.000" minGap="1.500" sigma="0.918" speedFactor="normc(1,0.11,0.2,2)" tau="1.300" vClass="passenger"/>
        <vType accel="3.000" carFollowModel="Krauss" decel="5.000" guiShape="passenger" id="passenger42" length="4.781" maxSpeed="80.000" minGap="1.500" sigma="0.814" speedFactor="normc(1,0.11,0.2,2)" tau="1.300" vClass="passenger"/>
        <vType accel="3.000" carFollowModel="Krauss" decel="5.000" guiShape="passenger" id="passenger43" length="4.958" maxSpeed="80.000" minGap="1.500" sigma="0.981" speedFactor="normc(1,0.11,0.2,2)" tau="1.300" vClass="passenger"/>
        <vType accel="3.000" carFollowModel="Krauss" decel="5.000" guiShape="passenger" id="passenger44" length="4.628" maxSpeed="80.000" minGap="1.500" sigma="0.843" speedFactor="normc(1,0.11,0.2,2)" tau="1.300" vClass="passenger"/>
        <vType accel="3.000" carFollowModel="Krauss" decel="5.000" guiShape="passenger" id="passenger45" length="4.946" maxSpeed="80.000" minGap="1.500" sigma="0.957" speedFactor="normc(1,0.11,0.2,2)" tau="1.300" vClass="passenger"/>
        <vType accel="3.000" carFollowModel="Krauss" decel="5.000" guiShape="passenger" id="passenger46" length="5.030" maxSpeed="80.000" minGap="1.500" sigma="0.819" speedFactor="normc(1,0.11,0.2,2)" tau="1.300" vClass="passenger"/>
        <vType accel="3.000" carFollowModel="Krauss" decel="5.000" guiShape="passenger" id="passenger47" length="4.859" maxSpeed="80.000" minGap="1.500" sigma="0.893" speedFactor="normc(1,0.11,0.2,2)" tau="1.300" vClass="passenger"/>
        <vType accel="3.000" carFollowModel="Krauss" decel="5.000" guiShape="passenger" id="passenger48" length="5.141" maxSpeed="80.000" minGap="1.500" sigma="0.997" speedFactor="normc(1,0.11,0.2,2)" tau="1.300" vClass="passenger"/>
        <vType accel="3.000" carFollowModel="Krauss" decel="5.000" guiShape="passenger" id="passenger49" length="4.669" maxSpeed="80.000" minGap="1.500" sigma="0.868" speedFactor="normc(1,0.11,0.2,2)" tau="1.300" vClass="passenger"/>
        <vType accel="3.000" carFollowModel="Krauss" decel="5.000" guiShape="passenger" id="passenger50" length="5.065" maxSpeed="80.000" minGap="1.500" sigma="0.838" speedFactor="normc(1,0.11,0.2,2)" tau="1.300" vClass="passenger"/>
        <vType accel="3.000" carFollowModel="Krauss" decel="5.000" guiShape="passenger" id="passenger51" length="4.870" maxSpeed="80.000" minGap="1.500" sigma="0.856" speedFactor="normc(1,0.11,0.2,2)" tau="1.300" vClass="passenger"/>
        <vType accel="3.000" carFollowModel="Krauss" decel="5.000" guiShape="passenger" id="passenger52" length="4.759" maxSpeed="80.000" minGap="1.500" sigma="0.910" speedFactor="normc(1,0.11,0.2,2)" tau="1.300" vClass="passenger"/>
        <vType accel="3.000" carFollowModel="Krauss" decel="5.000" guiShape="passenger" id="passenger53" length="4.677" maxSpeed="80.000" minGap="1.500" sigma="0.843" speedFactor="normc(1,0.11,0.2,2)" tau="1.300" vClass="passenger"/>
        <vType accel="3.000" carFollowModel="Krauss" decel="5.000" guiShape="passenger" id="passenger54" length="4.864" maxSpeed="80.000" minGap="1.500" sigma="0.876" speedFactor="normc(1,0.11,0.2,2)" tau="1.300" vClass="passenger"/>
        <vType accel="3.000" carFollowModel="Krauss" decel="5.000" guiShape="passenger" id="passenger55" length="5.079" maxSpeed="80.000" minGap="1.500" sigma="0.885" speedFactor="normc(1,0.11,0.2,2)" tau="1.300" vClass="passenger"/>
        <vType accel="3.000" carFollowModel="Krauss" decel="5.000" guiShape="passenger" id="passenger56" length="4.968" maxSpeed="80.000" minGap="1.500" sigma="0.831" speedFactor="normc(1,0.11,0.2,2)" tau="1.300" vClass="passenger"/>
        <vType accel="3.000" carFollowModel="Krauss" decel="5.000" guiShape="passenger" id="passenger57" length="4.959" maxSpeed="80.000" minGap="1.500" sigma="0.950" speedFactor="normc(1,0.11,0.2,2)" tau="1.300" vClass="passenger"/>
        <vType accel="3.000" carFollowModel="Krauss" decel="5.000" guiShape="passenger" id="passenger58" length="4.535" maxSpeed="80.000" minGap="1.500" sigma="0.901" speedFactor="normc(1,0.11,0.2,2)" tau="1.300" vClass="passenger"/>
        <vType accel="3.000" carFollowModel="Krauss" decel="5.000" guiShape="passenger" id="passenger59" length="5.044" maxSpeed="80.000" minGap="1.500" sigma="0.992" speedFactor="normc(1,0.11,0.2,2)" tau="1.300" vClass="passenger"/>
        <vType accel="3.000" carFollowModel="Krauss" decel="5.000" guiShape="passenger" id="passenger60" length="4.723" maxSpeed="80.000" minGap="1.500" sigma="0.919" speedFactor="normc(1,0.11,0.2,2)" tau="1.300" vClass="passenger"/>
        <vType accel="3.000" carFollowModel="Krauss" decel="5.000" guiShape="passenger" id="passenger61" length="4.979" maxSpeed="80.000" minGap="1.500" sigma="0.824" speedFactor="normc(1,0.11,0.2,2)" tau="1.300" vClass="passenger"/>
        <vType accel="3.000" carFollowModel="Krauss" decel="5.000" guiShape="passenger" id="passenger62" length="5.078" maxSpeed="80.000" minGap="1.500" sigma="0.919" speedFactor="normc(1,0.11,0.2,2)" tau="1.300" vClass="passenger"/>
        <vType accel="3.000" carFollowModel="Krauss" decel="5.000" guiShape="passenger" id="passenger63" length="4.971" maxSpeed="80.000" minGap="1.500" sigma="0.917" speedFactor="normc(1,0.11,0.2,2)" tau="1.300" vClass="passenger"/>
        <vType accel="3.000" carFollowModel="Krauss" decel="5.000" guiShape="passenger" id="passenger64" length="5.020" maxSpeed="80.000" minGap="1.500" sigma="0.841" speedFactor="normc(1,0.11,0.2,2)" tau="1.300" vClass="passenger"/>
        <vType accel="3.000" carFollowModel="Krauss" decel="5.000" guiShape="passenger" id="passenger65" length="4.997" maxSpeed="80.000" minGap="1.500" sigma="0.879" speedFactor="normc(1,0.11,0.2,2)" tau="1.300" vClass="passenger"/>
        <vType accel="3.000" carFollowModel="Krauss" decel="5.000" guiShape="passenger" id="passenger66" length="4.984" maxSpeed="80.000" minGap="1.500" sigma="0.863" speedFactor="normc(1,0.11,0.2,2)" tau="1.300" vClass="passenger"/>
        <vType accel="3.000" carFollowModel="Krauss" decel="5.000" guiShape="passenger" id="passenger67" length="4.993" maxSpeed="80.000" minGap="1.500" sigma="0.892" speedFactor="normc(1,0.11,0.2,2)" tau="1.300" vClass="passenger"/>
        <vType accel="3.000" carFollowModel="Krauss" decel="5.000" guiShape="passenger" id="passenger68" length="4.714" maxSpeed="80.000" minGap="1.500" sigma="0.853" speedFactor="normc(1,0.11,0.2,2)" tau="1.300" vClass="passenger"/>
        <vType accel="3.000" carFollowModel="Krauss" decel="5.000" guiShape="passenger" id="passenger69" length="5.106" maxSpeed="80.000" minGap="1.500" sigma="0.832" speedFactor="normc(1,0.11,0.2,2)" tau="1.300" vClass="passenger"/>
        <vType accel="3.000" carFollowModel="Krauss" decel="5.000" guiShape="passenger" id="passenger70" length="5.286" maxSpeed="80.000" minGap="1.500" sigma="0.922" speedFactor="normc(1,0.11,0.2,2)" tau="1.300" vClass="passenger"/>
        <vType accel="3.000" carFollowModel="Krauss" decel="5.000" guiShape="passenger" id="passenger71" length="4.696" maxSpeed="80.000" minGap="1.500" sigma="0.988" speedFactor="normc(1,0.11,0.2,2)" tau="1.300" vClass="passenger"/>
        <vType accel="3.000" carFollowModel="Krauss" decel="5.000" guiShape="passenger" id="passenger72" length="4.598" maxSpeed="80.000" minGap="1.500" sigma="0.854" speedFactor="normc(1,0.11,0.2,2)" tau="1.300" vClass="passenger"/>
        <vType accel="3.000" carFollowModel="Krauss" decel="5.000" guiShape="passenger" id="passenger73" length="5.027" maxSpeed="80.000" minGap="1.500" sigma="0.841" speedFactor="normc(1,0.11,0.2,2)" tau="1.300" vClass="passenger"/>
        <vType accel="3.000" carFollowModel="Krauss" decel="5.000" guiShape="passenger" id="passenger74" length="4.963" maxSpeed="80.000" minGap="1.500" sigma="0.898" speedFactor="normc(1,0.11,0.2,2)" tau="1.300" vClass="passenger"/>
        <vType accel="3.000" carFollowModel="Krauss" decel="5.000" guiShape="passenger" id="passenger75" length="4.657" maxSpeed="80.000" minGap="1.500" sigma="0.855" speedFactor="normc(1,0.11,0.2,2)" tau="1.300" vClass="passenger"/>
        <vType accel="3.000" carFollowModel="Krauss" decel="5.000" guiShape="passenger" id="passenger76" length="4.964" maxSpeed="80.000" minGap="1.500" sigma="0.948" speedFactor="normc(1,0.11,0.2,2)" tau="1.300" vClass="passenger"/>
        <vType accel="3.000" carFollowModel="Krauss" decel="5.000" guiShape="passenger" id="passenger77" length="4.931" maxSpeed="80.000" minGap="1.500" sigma="0.802" speedFactor="normc(1,0.11,0.2,2)" tau="1.300" vClass="passenger"/>
        <vType accel="3.000" carFollowModel="Krauss" decel="5.000" guiShape="passenger" id="passenger78" length="5.205" maxSpeed="80.000" minGap="1.500" sigma="0.967" speedFactor="normc(1,0.11,0.2,2)" tau="1.300" vClass="passenger"/>
        <vType accel="3.000" carFollowModel="Krauss" decel="5.000" guiShape="passenger" id="passenger79" length="4.933" maxSpeed="80.000" minGap="1.500" sigma="0.825" speedFactor="normc(1,0.11,0.2,2)" tau="1.300" vClass="passenger"/>
        <vType accel="3.000" carFollowModel="Krauss" decel="5.000" guiShape="passenger" id="passenger80" length="5.073" maxSpeed="80.000" minGap="1.500" sigma="0.850" speedFactor="normc(1,0.11,0.2,2)" tau="1.300" vClass="passenger"/>
        <vType accel="3.000" carFollowModel="Krauss" decel="5.000" guiShape="passenger" id="passenger81" length="5.122" maxSpeed="80.000" minGap="1.500" sigma="0.924" speedFactor="normc(1,0.11,0.2,2)" tau="1.300" vClass="passenger"/>
        <vType accel="3.000" carFollowModel="Krauss" decel="5.000" guiShape="passenger" id="passenger82" length="5.045" maxSpeed="80.000" minGap="1.500" sigma="0.957" speedFactor="normc(1,0.11,0.2,2)" tau="1.300" vClass="passenger"/>
        <vType accel="3.000" carFollowModel="Krauss" decel="5.000" guiShape="passenger" id="passenger83" length="5.058" maxSpeed="80.000" minGap="1.500" sigma="0.963" speedFactor="normc(1,0.11,0.2,2)" tau="1.300" vClass="passenger"/>
        <vType accel="3.000" carFollowModel="Krauss" decel="5.000" guiShape="passenger" id="passenger84" length="4.880" maxSpeed="80.000" minGap="1.500" sigma="0.959" speedFactor="normc(1,0.11,0.2,2)" tau="1.300" vClass="passenger"/>
        <vType accel="3.000" carFollowModel="Krauss" decel="5.000" guiShape="passenger" id="passenger85" length="4.743" maxSpeed="80.000" minGap="1.500" sigma="0.973" speedFactor="normc(1,0.11,0.2,2)" tau="1.300" vClass="passenger"/>
        <vType accel="3.000" carFollowModel="Krauss" decel="5.000" guiShape="passenger" id="passenger86" length="5.122" maxSpeed="80.000" minGap="1.500" sigma="0.928" speedFactor="normc(1,0.11,0.2,2)" tau="1.300" vClass="passenger"/>
        <vType accel="3.000" carFollowModel="Krauss" decel="5.000" guiShape="passenger" id="passenger87" length="5.104" maxSpeed="80.000" minGap="1.500" sigma="0.823" speedFactor="normc(1,0.11,0.2,2)" tau="1.300" vClass="passenger"/>
        <vType accel="3.000" carFollowModel="Krauss" decel="5.000" guiShape="passenger" id="passenger88" length="5.116" maxSpeed="80.000" minGap="1.500" sigma="0.822" speedFactor="normc(1,0.11,0.2,2)" tau="1.300" vClass="passenger"/>
        <vType accel="3.000" carFollowModel="Krauss" decel="5.000" guiShape="passenger" id="passenger89" length="4.817" maxSpeed="80.000" minGap="1.500" sigma="0.863" speedFactor="normc(1,0.11,0.2,2)" tau="1.300" vClass="passenger"/>
        <vType accel="3.000" carFollowModel="Krauss" decel="5.000" guiShape="passenger" id="passenger90" length="4.975" maxSpeed="80.000" minGap="1.500" sigma="0.877" speedFactor="normc(1,0.11,0.2,2)" tau="1.300" vClass="passenger"/>
        <vType accel="3.000" carFollowModel="Krauss" decel="5.000" guiShape="passenger" id="passenger91" length="4.935" maxSpeed="80.000" minGap="1.500" sigma="0.942" speedFactor="normc(1,0.11,0.2,2)" tau="1.300" vClass="passenger"/>
        <vType accel="3.000" carFollowModel="Krauss" decel="5.000" guiShape="passenger" id="passenger92" length="4.947" maxSpeed="80.000" minGap="1.500" sigma="0.948" speedFactor="normc(1,0.11,0.2,2)" tau="1.300" vClass="passenger"/>
        <vType accel="3.000" carFollowModel="Krauss" decel="5.000" guiShape="passenger" id="passenger93" length="4.992" maxSpeed="80.000" minGap="1.500" sigma="0.814" speedFactor="normc(1,0.11,0.2,2)" tau="1.300" vClass="passenger"/>
        <vType accel="3.000" carFollowModel="Krauss" decel="5.000" guiShape="passenger" id="passenger94" length="4.984" maxSpeed="80.000" minGap="1.500" sigma="0.863" speedFactor="normc(1,0.11,0.2,2)" tau="1.300" vClass="passenger"/>
        <vType accel="3.000" carFollowModel="Krauss" decel="5.000" guiShape="passenger" id="passenger95" length="5.326" maxSpeed="80.000" minGap="1.500" sigma="0.860" speedFactor="normc(1,0.11,0.2,2)" tau="1.300" vClass="passenger"/>
        <vType accel="3.000" carFollowModel="Krauss" decel="5.000" guiShape="passenger" id="passenger96" length="4.789" maxSpeed="80.000" minGap="1.500" sigma="0.880" speedFactor="normc(1,0.11,0.2,2)" tau="1.300" vClass="passenger"/>
        <vType accel="3.000" carFollowModel="Krauss" decel="5.000" guiShape="passenger" id="passenger97" length="4.820" maxSpeed="80.000" minGap="1.500" sigma="0.884" speedFactor="normc(1,0.11,0.2,2)" tau="1.300" vClass="passenger"/>
        <vType accel="3.000" carFollowModel="Krauss" decel="5.000" guiShape="passenger" id="passenger98" length="5.259" maxSpeed="80.000" minGap="1.500" sigma="0.860" speedFactor="normc(1,0.11,0.2,2)" tau="1.300" vClass="passenger"/>
        <vType accel="3.000" carFollowModel="Krauss" decel="5.000" guiShape="passenger" id="passenger99" length="4.772" maxSpeed="80.000" minGap="1.500" sigma="0.916" speedFactor="normc(1,0.11,0.2,2)" tau="1.300" vClass="passenger"/>
    </vTypeDistribution>
</additional>
