<additional xmlns:xsi="http://www.w3.org/2001/XMLSchema-instance" xsi:noNamespaceSchemaLocation="http://sumo.dlr.de/xsd/additional_file.xsd">
    <vTypeDistribution id="passenger">
        <vType accel="3.000" carFollowModel="Krauss" decel="5.000" guiShape="passenger" id="passenger0" length="4.949" maxSpeed="80.000" minGap="1.500" sigma="0.100" speedFactor="normc(1,0.11,0.2,2)" tau="1.300" vClass="passenger"/>
        <vType accel="3.000" carFollowModel="Krauss" decel="5.000" guiShape="passenger" id="passenger1" length="4.801" maxSpeed="80.000" minGap="1.500" sigma="0.100" speedFactor="normc(1,0.11,0.2,2)" tau="1.300" vClass="passenger"/>
        <vType accel="3.000" carFollowModel="Krauss" decel="5.000" guiShape="passenger" id="passenger2" length="5.151" maxSpeed="80.000" minGap="1.500" sigma="0.100" speedFactor="normc(1,0.11,0.2,2)" tau="1.300" vClass="passenger"/>
        <vType accel="3.000" carFollowModel="Krauss" decel="5.000" guiShape="passenger" id="passenger3" length="4.872" maxSpeed="80.000" minGap="1.500" sigma="0.100" speedFactor="normc(1,0.11,0.2,2)" tau="1.300" vClass="passenger"/>
        <vType accel="3.000" carFollowModel="Krauss" decel="5.000" guiShape="passenger" id="passenger4" length="4.705" maxSpeed="80.000" minGap="1.500" sigma="0.100" speedFactor="normc(1,0.11,0.2,2)" tau="1.300" vClass="passenger"/>
        <vType accel="3.000" carFollowModel="Krauss" decel="5.000" guiShape="passenger" id="passenger5" length="5.013" maxSpeed="80.000" minGap="1.500" sigma="0.100" speedFactor="normc(1,0.11,0.2,2)" tau="1.300" vClass="passenger"/>
        <vType accel="3.000" carFollowModel="Krauss" decel="5.000" guiShape="passenger" id="passenger6" length="4.666" maxSpeed="80.000" minGap="1.500" sigma="0.100" speedFactor="normc(1,0.11,0.2,2)" tau="1.300" vClass="passenger"/>
        <vType accel="3.000" carFollowModel="Krauss" decel="5.000" guiShape="passenger" id="passenger7" length="5.248" maxSpeed="80.000" minGap="1.500" sigma="0.100" speedFactor="normc(1,0.11,0.2,2)" tau="1.300" vClass="passenger"/>
        <vType accel="3.000" carFollowModel="Krauss" decel="5.000" guiShape="passenger" id="passenger8" length="4.835" maxSpeed="80.000" minGap="1.500" sigma="0.100" speedFactor="normc(1,0.11,0.2,2)" tau="1.300" vClass="passenger"/>
        <vType accel="3.000" carFollowModel="Krauss" decel="5.000" guiShape="passenger" id="passenger9" length="5.136" maxSpeed="80.000" minGap="1.500" sigma="0.100" speedFactor="normc(1,0.11,0.2,2)" tau="1.300" vClass="passenger"/>
        <vType accel="3.000" carFollowModel="Krauss" decel="5.000" guiShape="passenger" id="passenger10" length="5.201" maxSpeed="80.000" minGap="1.500" sigma="0.100" speedFactor="normc(1,0.11,0.2,2)" tau="1.300" vClass="passenger"/>
        <vType accel="3.000" carFollowModel="Krauss" decel="5.000" guiShape="passenger" id="passenger11" length="5.290" maxSpeed="80.000" minGap="1.500" sigma="0.100" speedFactor="normc(1,0.11,0.2,2)" tau="1.300" vClass="passenger"/>
        <vType accel="3.000" carFollowModel="Krauss" decel="5.000" guiShape="passenger" id="passenger12" length="5.362" maxSpeed="80.000" minGap="1.500" sigma="0.100" speedFactor="normc(1,0.11,0.2,2)" tau="1.300" vClass="passenger"/>
        <vType accel="3.000" carFollowModel="Krauss" decel="5.000" guiShape="passenger" id="passenger13" length="4.807" maxSpeed="80.000" minGap="1.500" sigma="0.100" speedFactor="normc(1,0.11,0.2,2)" tau="1.300" vClass="passenger"/>
        <vType accel="3.000" carFollowModel="Krauss" decel="5.000" guiShape="passenger" id="passenger14" length="5.196" maxSpeed="80.000" minGap="1.500" sigma="0.100" speedFactor="normc(1,0.11,0.2,2)" tau="1.300" vClass="passenger"/>
        <vType accel="3.000" carFollowModel="Krauss" decel="5.000" guiShape="passenger" id="passenger15" length="5.194" maxSpeed="80.000" minGap="1.500" sigma="0.100" speedFactor="normc(1,0.11,0.2,2)" tau="1.300" vClass="passenger"/>
        <vType accel="3.000" carFollowModel="Krauss" decel="5.000" guiShape="passenger" id="passenger16" length="4.974" maxSpeed="80.000" minGap="1.500" sigma="0.100" speedFactor="normc(1,0.11,0.2,2)" tau="1.300" vClass="passenger"/>
        <vType accel="3.000" carFollowModel="Krauss" decel="5.000" guiShape="passenger" id="passenger17" length="4.769" maxSpeed="80.000" minGap="1.500" sigma="0.100" speedFactor="normc(1,0.11,0.2,2)" tau="1.300" vClass="passenger"/>
        <vType accel="3.000" carFollowModel="Krauss" decel="5.000" guiShape="passenger" id="passenger18" length="4.712" maxSpeed="80.000" minGap="1.500" sigma="0.100" speedFactor="normc(1,0.11,0.2,2)" tau="1.300" vClass="passenger"/>
        <vType accel="3.000" carFollowModel="Krauss" decel="5.000" guiShape="passenger" id="passenger19" length="4.710" maxSpeed="80.000" minGap="1.500" sigma="0.100" speedFactor="normc(1,0.11,0.2,2)" tau="1.300" vClass="passenger"/>
        <vType accel="3.000" carFollowModel="Krauss" decel="5.000" guiShape="passenger" id="passenger20" length="4.973" maxSpeed="80.000" minGap="1.500" sigma="0.100" speedFactor="normc(1,0.11,0.2,2)" tau="1.300" vClass="passenger"/>
        <vType accel="3.000" carFollowModel="Krauss" decel="5.000" guiShape="passenger" id="passenger21" length="4.844" maxSpeed="80.000" minGap="1.500" sigma="0.100" speedFactor="normc(1,0.11,0.2,2)" tau="1.300" vClass="passenger"/>
        <vType accel="3.000" carFollowModel="Krauss" decel="5.000" guiShape="passenger" id="passenger22" length="5.030" maxSpeed="80.000" minGap="1.500" sigma="0.100" speedFactor="normc(1,0.11,0.2,2)" tau="1.300" vClass="passenger"/>
        <vType accel="3.000" carFollowModel="Krauss" decel="5.000" guiShape="passenger" id="passenger23" length="4.483" maxSpeed="80.000" minGap="1.500" sigma="0.100" speedFactor="normc(1,0.11,0.2,2)" tau="1.300" vClass="passenger"/>
        <vType accel="3.000" carFollowModel="Krauss" decel="5.000" guiShape="passenger" id="passenger24" length="4.714" maxSpeed="80.000" minGap="1.500" sigma="0.100" speedFactor="normc(1,0.11,0.2,2)" tau="1.300" vClass="passenger"/>
        <vType accel="3.000" carFollowModel="Krauss" decel="5.000" guiShape="passenger" id="passenger25" length="4.962" maxSpeed="80.000" minGap="1.500" sigma="0.100" speedFactor="normc(1,0.11,0.2,2)" tau="1.300" vClass="passenger"/>
        <vType accel="3.000" carFollowModel="Krauss" decel="5.000" guiShape="passenger" id="passenger26" length="4.814" maxSpeed="80.000" minGap="1.500" sigma="0.100" speedFactor="normc(1,0.11,0.2,2)" tau="1.300" vClass="passenger"/>
        <vType accel="3.000" carFollowModel="Krauss" decel="5.000" guiShape="passenger" id="passenger27" length="5.088" maxSpeed="80.000" minGap="1.500" sigma="0.100" speedFactor="normc(1,0.11,0.2,2)" tau="1.300" vClass="passenger"/>
        <vType accel="3.000" carFollowModel="Krauss" decel="5.000" guiShape="passenger" id="passenger28" length="4.988" maxSpeed="80.000" minGap="1.500" sigma="0.100" speedFactor="normc(1,0.11,0.2,2)" tau="1.300" vClass="passenger"/>
        <vType accel="3.000" carFollowModel="Krauss" decel="5.000" guiShape="passenger" id="passenger29" length="5.163" maxSpeed="80.000" minGap="1.500" sigma="0.100" speedFactor="normc(1,0.11,0.2,2)" tau="1.300" vClass="passenger"/>
        <vType accel="3.000" carFollowModel="Krauss" decel="5.000" guiShape="passenger" id="passenger30" length="4.793" maxSpeed="80.000" minGap="1.500" sigma="0.100" speedFactor="normc(1,0.11,0.2,2)" tau="1.300" vClass="passenger"/>
        <vType accel="3.000" carFollowModel="Krauss" decel="5.000" guiShape="passenger" id="passenger31" length="4.929" maxSpeed="80.000" minGap="1.500" sigma="0.100" speedFactor="normc(1,0.11,0.2,2)" tau="1.300" vClass="passenger"/>
        <vType accel="3.000" carFollowModel="Krauss" decel="5.000" guiShape="passenger" id="passenger32" length="5.184" maxSpeed="80.000" minGap="1.500" sigma="0.100" speedFactor="normc(1,0.11,0.2,2)" tau="1.300" vClass="passenger"/>
        <vType accel="3.000" carFollowModel="Krauss" decel="5.000" guiShape="passenger" id="passenger33" length="4.856" maxSpeed="80.000" minGap="1.500" sigma="0.100" speedFactor="normc(1,0.11,0.2,2)" tau="1.300" vClass="passenger"/>
        <vType accel="3.000" carFollowModel="Krauss" decel="5.000" guiShape="passenger" id="passenger34" length="4.541" maxSpeed="80.000" minGap="1.500" sigma="0.100" speedFactor="normc(1,0.11,0.2,2)" tau="1.300" vClass="passenger"/>
        <vType accel="3.000" carFollowModel="Krauss" decel="5.000" guiShape="passenger" id="passenger35" length="5.073" maxSpeed="80.000" minGap="1.500" sigma="0.100" speedFactor="normc(1,0.11,0.2,2)" tau="1.300" vClass="passenger"/>
        <vType accel="3.000" carFollowModel="Krauss" decel="5.000" guiShape="passenger" id="passenger36" length="4.658" maxSpeed="80.000" minGap="1.500" sigma="0.100" speedFactor="normc(1,0.11,0.2,2)" tau="1.300" vClass="passenger"/>
        <vType accel="3.000" carFollowModel="Krauss" decel="5.000" guiShape="passenger" id="passenger37" length="5.035" maxSpeed="80.000" minGap="1.500" sigma="0.100" speedFactor="normc(1,0.11,0.2,2)" tau="1.300" vClass="passenger"/>
        <vType accel="3.000" carFollowModel="Krauss" decel="5.000" guiShape="passenger" id="passenger38" length="4.677" maxSpeed="80.000" minGap="1.500" sigma="0.100" speedFactor="normc(1,0.11,0.2,2)" tau="1.300" vClass="passenger"/>
        <vType accel="3.000" carFollowModel="Krauss" decel="5.000" guiShape="passenger" id="passenger39" length="4.664" maxSpeed="80.000" minGap="1.500" sigma="0.100" speedFactor="normc(1,0.11,0.2,2)" tau="1.300" vClass="passenger"/>
        <vType accel="3.000" carFollowModel="Krauss" decel="5.000" guiShape="passenger" id="passenger40" length="4.556" maxSpeed="80.000" minGap="1.500" sigma="0.100" speedFactor="normc(1,0.11,0.2,2)" tau="1.300" vClass="passenger"/>
        <vType accel="3.000" carFollowModel="Krauss" decel="5.000" guiShape="passenger" id="passenger41" length="5.075" maxSpeed="80.000" minGap="1.500" sigma="0.100" speedFactor="normc(1,0.11,0.2,2)" tau="1.300" vClass="passenger"/>
        <vType accel="3.000" carFollowModel="Krauss" decel="5.000" guiShape="passenger" id="passenger42" length="4.900" maxSpeed="80.000" minGap="1.500" sigma="0.100" speedFactor="normc(1,0.11,0.2,2)" tau="1.300" vClass="passenger"/>
        <vType accel="3.000" carFollowModel="Krauss" decel="5.000" guiShape="passenger" id="passenger43" length="4.708" maxSpeed="80.000" minGap="1.500" sigma="0.100" speedFactor="normc(1,0.11,0.2,2)" tau="1.300" vClass="passenger"/>
        <vType accel="3.000" carFollowModel="Krauss" decel="5.000" guiShape="passenger" id="passenger44" length="4.944" maxSpeed="80.000" minGap="1.500" sigma="0.100" speedFactor="normc(1,0.11,0.2,2)" tau="1.300" vClass="passenger"/>
        <vType accel="3.000" carFollowModel="Krauss" decel="5.000" guiShape="passenger" id="passenger45" length="5.096" maxSpeed="80.000" minGap="1.500" sigma="0.100" speedFactor="normc(1,0.11,0.2,2)" tau="1.300" vClass="passenger"/>
        <vType accel="3.000" carFollowModel="Krauss" decel="5.000" guiShape="passenger" id="passenger46" length="5.104" maxSpeed="80.000" minGap="1.500" sigma="0.100" speedFactor="normc(1,0.11,0.2,2)" tau="1.300" vClass="passenger"/>
        <vType accel="3.000" carFollowModel="Krauss" decel="5.000" guiShape="passenger" id="passenger47" length="4.830" maxSpeed="80.000" minGap="1.500" sigma="0.100" speedFactor="normc(1,0.11,0.2,2)" tau="1.300" vClass="passenger"/>
        <vType accel="3.000" carFollowModel="Krauss" decel="5.000" guiShape="passenger" id="passenger48" length="4.623" maxSpeed="80.000" minGap="1.500" sigma="0.100" speedFactor="normc(1,0.11,0.2,2)" tau="1.300" vClass="passenger"/>
        <vType accel="3.000" carFollowModel="Krauss" decel="5.000" guiShape="passenger" id="passenger49" length="5.005" maxSpeed="80.000" minGap="1.500" sigma="0.100" speedFactor="normc(1,0.11,0.2,2)" tau="1.300" vClass="passenger"/>
        <vType accel="3.000" carFollowModel="Krauss" decel="5.000" guiShape="passenger" id="passenger50" length="4.881" maxSpeed="80.000" minGap="1.500" sigma="0.100" speedFactor="normc(1,0.11,0.2,2)" tau="1.300" vClass="passenger"/>
        <vType accel="3.000" carFollowModel="Krauss" decel="5.000" guiShape="passenger" id="passenger51" length="4.867" maxSpeed="80.000" minGap="1.500" sigma="0.100" speedFactor="normc(1,0.11,0.2,2)" tau="1.300" vClass="passenger"/>
        <vType accel="3.000" carFollowModel="Krauss" decel="5.000" guiShape="passenger" id="passenger52" length="4.950" maxSpeed="80.000" minGap="1.500" sigma="0.100" speedFactor="normc(1,0.11,0.2,2)" tau="1.300" vClass="passenger"/>
        <vType accel="3.000" carFollowModel="Krauss" decel="5.000" guiShape="passenger" id="passenger53" length="4.751" maxSpeed="80.000" minGap="1.500" sigma="0.100" speedFactor="normc(1,0.11,0.2,2)" tau="1.300" vClass="passenger"/>
        <vType accel="3.000" carFollowModel="Krauss" decel="5.000" guiShape="passenger" id="passenger54" length="4.856" maxSpeed="80.000" minGap="1.500" sigma="0.100" speedFactor="normc(1,0.11,0.2,2)" tau="1.300" vClass="passenger"/>
        <vType accel="3.000" carFollowModel="Krauss" decel="5.000" guiShape="passenger" id="passenger55" length="4.732" maxSpeed="80.000" minGap="1.500" sigma="0.100" speedFactor="normc(1,0.11,0.2,2)" tau="1.300" vClass="passenger"/>
        <vType accel="3.000" carFollowModel="Krauss" decel="5.000" guiShape="passenger" id="passenger56" length="4.765" maxSpeed="80.000" minGap="1.500" sigma="0.100" speedFactor="normc(1,0.11,0.2,2)" tau="1.300" vClass="passenger"/>
        <vType accel="3.000" carFollowModel="Krauss" decel="5.000" guiShape="passenger" id="passenger57" length="4.781" maxSpeed="80.000" minGap="1.500" sigma="0.100" speedFactor="normc(1,0.11,0.2,2)" tau="1.300" vClass="passenger"/>
        <vType accel="3.000" carFollowModel="Krauss" decel="5.000" guiShape="passenger" id="passenger58" length="4.501" maxSpeed="80.000" minGap="1.500" sigma="0.100" speedFactor="normc(1,0.11,0.2,2)" tau="1.300" vClass="passenger"/>
        <vType accel="3.000" carFollowModel="Krauss" decel="5.000" guiShape="passenger" id="passenger59" length="4.628" maxSpeed="80.000" minGap="1.500" sigma="0.100" speedFactor="normc(1,0.11,0.2,2)" tau="1.300" vClass="passenger"/>
        <vType accel="3.000" carFollowModel="Krauss" decel="5.000" guiShape="passenger" id="passenger60" length="4.787" maxSpeed="80.000" minGap="1.500" sigma="0.100" speedFactor="normc(1,0.11,0.2,2)" tau="1.300" vClass="passenger"/>
        <vType accel="3.000" carFollowModel="Krauss" decel="5.000" guiShape="passenger" id="passenger61" length="5.248" maxSpeed="80.000" minGap="1.500" sigma="0.100" speedFactor="normc(1,0.11,0.2,2)" tau="1.300" vClass="passenger"/>
        <vType accel="3.000" carFollowModel="Krauss" decel="5.000" guiShape="passenger" id="passenger62" length="4.856" maxSpeed="80.000" minGap="1.500" sigma="0.100" speedFactor="normc(1,0.11,0.2,2)" tau="1.300" vClass="passenger"/>
        <vType accel="3.000" carFollowModel="Krauss" decel="5.000" guiShape="passenger" id="passenger63" length="5.030" maxSpeed="80.000" minGap="1.500" sigma="0.100" speedFactor="normc(1,0.11,0.2,2)" tau="1.300" vClass="passenger"/>
        <vType accel="3.000" carFollowModel="Krauss" decel="5.000" guiShape="passenger" id="passenger64" length="4.657" maxSpeed="80.000" minGap="1.500" sigma="0.100" speedFactor="normc(1,0.11,0.2,2)" tau="1.300" vClass="passenger"/>
        <vType accel="3.000" carFollowModel="Krauss" decel="5.000" guiShape="passenger" id="passenger65" length="4.851" maxSpeed="80.000" minGap="1.500" sigma="0.100" speedFactor="normc(1,0.11,0.2,2)" tau="1.300" vClass="passenger"/>
        <vType accel="3.000" carFollowModel="Krauss" decel="5.000" guiShape="passenger" id="passenger66" length="5.141" maxSpeed="80.000" minGap="1.500" sigma="0.100" speedFactor="normc(1,0.11,0.2,2)" tau="1.300" vClass="passenger"/>
        <vType accel="3.000" carFollowModel="Krauss" decel="5.000" guiShape="passenger" id="passenger67" length="4.849" maxSpeed="80.000" minGap="1.500" sigma="0.100" speedFactor="normc(1,0.11,0.2,2)" tau="1.300" vClass="passenger"/>
        <vType accel="3.000" carFollowModel="Krauss" decel="5.000" guiShape="passenger" id="passenger68" length="5.065" maxSpeed="80.000" minGap="1.500" sigma="0.100" speedFactor="normc(1,0.11,0.2,2)" tau="1.300" vClass="passenger"/>
        <vType accel="3.000" carFollowModel="Krauss" decel="5.000" guiShape="passenger" id="passenger69" length="4.707" maxSpeed="80.000" minGap="1.500" sigma="0.100" speedFactor="normc(1,0.11,0.2,2)" tau="1.300" vClass="passenger"/>
        <vType accel="3.000" carFollowModel="Krauss" decel="5.000" guiShape="passenger" id="passenger70" length="4.863" maxSpeed="80.000" minGap="1.500" sigma="0.100" speedFactor="normc(1,0.11,0.2,2)" tau="1.300" vClass="passenger"/>
        <vType accel="3.000" carFollowModel="Krauss" decel="5.000" guiShape="passenger" id="passenger71" length="4.759" maxSpeed="80.000" minGap="1.500" sigma="0.100" speedFactor="normc(1,0.11,0.2,2)" tau="1.300" vClass="passenger"/>
        <vType accel="3.000" carFollowModel="Krauss" decel="5.000" guiShape="passenger" id="passenger72" length="4.918" maxSpeed="80.000" minGap="1.500" sigma="0.100" speedFactor="normc(1,0.11,0.2,2)" tau="1.300" vClass="passenger"/>
        <vType accel="3.000" carFollowModel="Krauss" decel="5.000" guiShape="passenger" id="passenger73" length="5.044" maxSpeed="80.000" minGap="1.500" sigma="0.100" speedFactor="normc(1,0.11,0.2,2)" tau="1.300" vClass="passenger"/>
        <vType accel="3.000" carFollowModel="Krauss" decel="5.000" guiShape="passenger" id="passenger74" length="4.894" maxSpeed="80.000" minGap="1.500" sigma="0.100" speedFactor="normc(1,0.11,0.2,2)" tau="1.300" vClass="passenger"/>
        <vType accel="3.000" carFollowModel="Krauss" decel="5.000" guiShape="passenger" id="passenger75" length="4.864" maxSpeed="80.000" minGap="1.500" sigma="0.100" speedFactor="normc(1,0.11,0.2,2)" tau="1.300" vClass="passenger"/>
        <vType accel="3.000" carFollowModel="Krauss" decel="5.000" guiShape="passenger" id="passenger76" length="4.527" maxSpeed="80.000" minGap="1.500" sigma="0.100" speedFactor="normc(1,0.11,0.2,2)" tau="1.300" vClass="passenger"/>
        <vType accel="3.000" carFollowModel="Krauss" decel="5.000" guiShape="passenger" id="passenger77" length="4.873" maxSpeed="80.000" minGap="1.500" sigma="0.100" speedFactor="normc(1,0.11,0.2,2)" tau="1.300" vClass="passenger"/>
        <vType accel="3.000" carFollowModel="Krauss" decel="5.000" guiShape="passenger" id="passenger78" length="4.968" maxSpeed="80.000" minGap="1.500" sigma="0.100" speedFactor="normc(1,0.11,0.2,2)" tau="1.300" vClass="passenger"/>
        <vType accel="3.000" carFollowModel="Krauss" decel="5.000" guiShape="passenger" id="passenger79" length="4.732" maxSpeed="80.000" minGap="1.500" sigma="0.100" speedFactor="normc(1,0.11,0.2,2)" tau="1.300" vClass="passenger"/>
        <vType accel="3.000" carFollowModel="Krauss" decel="5.000" guiShape="passenger" id="passenger80" length="4.957" maxSpeed="80.000" minGap="1.500" sigma="0.100" speedFactor="normc(1,0.11,0.2,2)" tau="1.300" vClass="passenger"/>
        <vType accel="3.000" carFollowModel="Krauss" decel="5.000" guiShape="passenger" id="passenger81" length="4.535" maxSpeed="80.000" minGap="1.500" sigma="0.100" speedFactor="normc(1,0.11,0.2,2)" tau="1.300" vClass="passenger"/>
        <vType accel="3.000" carFollowModel="Krauss" decel="5.000" guiShape="passenger" id="passenger82" length="4.907" maxSpeed="80.000" minGap="1.500" sigma="0.100" speedFactor="normc(1,0.11,0.2,2)" tau="1.300" vClass="passenger"/>
        <vType accel="3.000" carFollowModel="Krauss" decel="5.000" guiShape="passenger" id="passenger83" length="4.723" maxSpeed="80.000" minGap="1.500" sigma="0.100" speedFactor="normc(1,0.11,0.2,2)" tau="1.300" vClass="passenger"/>
        <vType accel="3.000" carFollowModel="Krauss" decel="5.000" guiShape="passenger" id="passenger84" length="5.000" maxSpeed="80.000" minGap="1.500" sigma="0.100" speedFactor="normc(1,0.11,0.2,2)" tau="1.300" vClass="passenger"/>
        <vType accel="3.000" carFollowModel="Krauss" decel="5.000" guiShape="passenger" id="passenger85" length="4.797" maxSpeed="80.000" minGap="1.500" sigma="0.100" speedFactor="normc(1,0.11,0.2,2)" tau="1.300" vClass="passenger"/>
        <vType accel="3.000" carFollowModel="Krauss" decel="5.000" guiShape="passenger" id="passenger86" length="5.078" maxSpeed="80.000" minGap="1.500" sigma="0.100" speedFactor="normc(1,0.11,0.2,2)" tau="1.300" vClass="passenger"/>
        <vType accel="3.000" carFollowModel="Krauss" decel="5.000" guiShape="passenger" id="passenger87" length="4.985" maxSpeed="80.000" minGap="1.500" sigma="0.100" speedFactor="normc(1,0.11,0.2,2)" tau="1.300" vClass="passenger"/>
        <vType accel="3.000" carFollowModel="Krauss" decel="5.000" guiShape="passenger" id="passenger88" length="4.833" maxSpeed="80.000" minGap="1.500" sigma="0.100" speedFactor="normc(1,0.11,0.2,2)" tau="1.300" vClass="passenger"/>
        <vType accel="3.000" carFollowModel="Krauss" decel="5.000" guiShape="passenger" id="passenger89" length="5.020" maxSpeed="80.000" minGap="1.500" sigma="0.100" speedFactor="normc(1,0.11,0.2,2)" tau="1.300" vClass="passenger"/>
        <vType accel="3.000" carFollowModel="Krauss" decel="5.000" guiShape="passenger" id="passenger90" length="4.542" maxSpeed="80.000" minGap="1.500" sigma="0.100" speedFactor="normc(1,0.11,0.2,2)" tau="1.300" vClass="passenger"/>
        <vType accel="3.000" carFollowModel="Krauss" decel="5.000" guiShape="passenger" id="passenger91" length="4.752" maxSpeed="80.000" minGap="1.500" sigma="0.100" speedFactor="normc(1,0.11,0.2,2)" tau="1.300" vClass="passenger"/>
        <vType accel="3.000" carFollowModel="Krauss" decel="5.000" guiShape="passenger" id="passenger92" length="4.984" maxSpeed="80.000" minGap="1.500" sigma="0.100" speedFactor="normc(1,0.11,0.2,2)" tau="1.300" vClass="passenger"/>
        <vType accel="3.000" carFollowModel="Krauss" decel="5.000" guiShape="passenger" id="passenger93" length="4.646" maxSpeed="80.000" minGap="1.500" sigma="0.100" speedFactor="normc(1,0.11,0.2,2)" tau="1.300" vClass="passenger"/>
        <vType accel="3.000" carFollowModel="Krauss" decel="5.000" guiShape="passenger" id="passenger94" length="4.629" maxSpeed="80.000" minGap="1.500" sigma="0.100" speedFactor="normc(1,0.11,0.2,2)" tau="1.300" vClass="passenger"/>
        <vType accel="3.000" carFollowModel="Krauss" decel="5.000" guiShape="passenger" id="passenger95" length="4.714" maxSpeed="80.000" minGap="1.500" sigma="0.100" speedFactor="normc(1,0.11,0.2,2)" tau="1.300" vClass="passenger"/>
        <vType accel="3.000" carFollowModel="Krauss" decel="5.000" guiShape="passenger" id="passenger96" length="4.847" maxSpeed="80.000" minGap="1.500" sigma="0.100" speedFactor="normc(1,0.11,0.2,2)" tau="1.300" vClass="passenger"/>
        <vType accel="3.000" carFollowModel="Krauss" decel="5.000" guiShape="passenger" id="passenger97" length="5.286" maxSpeed="80.000" minGap="1.500" sigma="0.100" speedFactor="normc(1,0.11,0.2,2)" tau="1.300" vClass="passenger"/>
        <vType accel="3.000" carFollowModel="Krauss" decel="5.000" guiShape="passenger" id="passenger98" length="5.055" maxSpeed="80.000" minGap="1.500" sigma="0.100" speedFactor="normc(1,0.11,0.2,2)" tau="1.300" vClass="passenger"/>
        <vType accel="3.000" carFollowModel="Krauss" decel="5.000" guiShape="passenger" id="passenger99" length="4.598" maxSpeed="80.000" minGap="1.500" sigma="0.100" speedFactor="normc(1,0.11,0.2,2)" tau="1.300" vClass="passenger"/>
    </vTypeDistribution>
</additional>
