<additional>
	<vType id="DieselBus" accel="1.2" decel="4.0" sigma="0.5" length="8" minGap="3" maxSpeed="65" personCapacity="32" guiShape="bus" vClass="bus" emissionClass="HBEFA3/Bus"/>
	<vType id="HybridBus" accel="1.2" decel="4.0" sigma="0.5" length="9" minGap="3" maxSpeed="65" personCapacity="30" guiShape="bus" vClass="bus" emissionClass="HBEFA3/Bus"/>
	<vType id="ElectricBus" accel="1.0" decel="1.0" lenght="12" maxSpeed="100.0" sigma="0.0" minGap="2.5" color="1,1,1" guiShape="bus" vClass="bus" emissionClass="Energy">
        <param key="has.battery.device" value="true"/>
        <param key="maximumBatteryCapacity" value="2000"/>
        <param key="maximumPower" value="1000"/>
        <param key="vehicleMass" value="10000"/>
        <param key="frontSurfaceArea" value="5"/>
        <param key="airDragCoefficient" value="0.6"/>
        <param key="internalMomentOfInertia" value="0.01"/>
        <param key="radialDragCoefficient" value="0.5"/>
        <param key="rollDragCoefficient" value="0.01"/>
        <param key="constantPowerIntake" value="100"/>
        <param key="propulsionEfficiency" value="0.9"/>
        <param key="recuperationEfficiency" value="0.9"/>
        <param key="stoppingTreshold" value="0.1"/>
	</vType>
</additional>

