<?xml version="1.0" encoding="utf-8"?>
<routes>
	<route id="206311020_04:21:00" depart="15660.00" edges="-9282 2036 2288 2291 2292 2293 2035 1695 -38553 -2007 2007 38553 -38553 -2007 -78766 -78769 -78768 -78830 -1025 -1024 -694 345 78763 78836 -78835 -13636 9476 9455 13630 13637 -9383 -9385 -9387 -38638 -2074 -2073 -1480 -1489 gneE48 -1510 -1524 gneE33 -1540 -16484 -17310 -17309 24963 17636 17637 17487 2467 -1535 -1536 -1537 -16485 -16486 -17059 -17061 -17060 -16496 -16500 -16501 -16502 -16506 -16508 -17270 -17269 -16973 -16526 -16528 -17290 -17289 -16534 -17252 -17251 -16540 -16543 -16547 -16553 -16975 -16974 -16561 -16565 -16571 -16572 16574 16570 16932 17054 17055 17096 -17095 -17094 -16159 -16160 -16165 -16161 -16164 -16163 -16162 -16599 -16600 -16607 -16609 -17098 -17097 -16615 -16620 -16634 -16641 -38555 -16654 -16657 -16660 -16670 -16694 -16710 -16717 -16722 -17100 -17099 -16733 -16736 -16737 -16743 -16744 -16749 -17102 -17101 -16757 -17148 -17147 -16759 -16760 -16766 -16769 -16770 -16772 -16773 -16774 -16775 -16778 16777 -16777 16777 16771 16979 16980 -27198 -30359 -31890 -31893 -31912 -31915 -31918 -31921 -31925 -31927 -31931 -31933 -31938 -31937 -30362 -31946 -31945 -27462 -31961 -31960 32037 32038 31986 31988 31990 -31994 31993 31985 -31965 -31963 -31962 31961 30428 30429 30427 30426 30431 32120 32224 32225 16996 17340 17341 16934 38556 17139 16705 16698 16668 16664 16643 17247 17248 16638 16630 16614 16936 16591 38559 16568 16926 17266 17303 17304 16978 17063 17064 17305 17306 17307 17308 16497 16489 16481 1529 1521 -1513 -1517 -1527 -1650 -16951 -16480 -17276 -17275 -17235 -17234 -31291 -31313 -31312 -31315 -31314 -25114 25115 78743 -30289 -30288 30288 30289">
		<stop busStop="busStop_-9282_0_354" arrival="-30.0" until="0.0"></stop>
		<stop busStop="busStop_2007_0_505" arrival="188.0" until="218.0"></stop>
		<stop busStop="busStop_-78835_0_784" arrival="353.0" until="383.0"></stop>
		<stop busStop="busStop_9455_0_284" arrival="388.0" until="418.0"></stop>
		<stop busStop="busStop_13630_0_285" arrival="433.0" until="463.0"></stop>
		<stop busStop="busStop_-9383_0_286" arrival="467.0" until="497.0"></stop>
		<stop busStop="busStop_-9385_0_287" arrival="483.0" until="513.0"></stop>
		<stop busStop="busStop_-2074_0_1351" arrival="510.0" until="540.0"></stop>
		<stop busStop="busStop_-1489_0_12" arrival="550.0" until="580.0"></stop>
		<stop busStop="busStop_gneE48_0_1555" arrival="593.0" until="623.0"></stop>
		<stop busStop="busStop_-1510_0_1579" arrival="605.0" until="635.0"></stop>
		<stop busStop="busStop_-1524_0_1354" arrival="638.0" until="668.0"></stop>
		<stop busStop="busStop_-1540_0_17" arrival="667.0" until="697.0"></stop>
		<stop busStop="busStop_-17310_0_742" arrival="686.0" until="716.0"></stop>
		<stop busStop="busStop_17637_0_806" arrival="920.0" until="950.0"></stop>
		<stop busStop="busStop_2467_0_1475" arrival="982.0" until="1012.0"></stop>
		<stop busStop="busStop_-1535_0_1474" arrival="992.0" until="1022.0"></stop>
		<stop busStop="busStop_-16485_0_811" arrival="1016.0" until="1046.0"></stop>
		<stop busStop="busStop_-16486_0_812" arrival="1035.0" until="1065.0"></stop>
		<stop busStop="busStop_-17060_0_813" arrival="1066.0" until="1096.0"></stop>
		<stop busStop="busStop_-16500_1_814" arrival="1085.0" until="1115.0"></stop>
		<stop busStop="busStop_-16501_0_815" arrival="1099.0" until="1129.0"></stop>
		<stop busStop="busStop_-16502_0_816" arrival="1118.0" until="1148.0"></stop>
		<stop busStop="busStop_-16506_0_817" arrival="1135.0" until="1165.0"></stop>
		<stop busStop="busStop_-16508_0_818" arrival="1154.0" until="1184.0"></stop>
		<stop busStop="busStop_-16526_0_820" arrival="1242.0" until="1272.0"></stop>
		<stop busStop="busStop_-16528_0_821" arrival="1259.0" until="1289.0"></stop>
		<stop busStop="busStop_-17289_0_822" arrival="1278.0" until="1308.0"></stop>
		<stop busStop="busStop_-16534_0_823" arrival="1297.0" until="1327.0"></stop>
		<stop busStop="busStop_-17251_0_824" arrival="1314.0" until="1344.0"></stop>
		<stop busStop="busStop_-16540_0_825" arrival="1333.0" until="1363.0"></stop>
		<stop busStop="busStop_-16543_0_826" arrival="1352.0" until="1382.0"></stop>
		<stop busStop="busStop_-16547_0_827" arrival="1371.0" until="1401.0"></stop>
		<stop busStop="busStop_-16975_1_828" arrival="1395.0" until="1425.0"></stop>
		<stop busStop="busStop_-16974_1_829" arrival="1410.0" until="1440.0"></stop>
		<stop busStop="busStop_-16561_0_321" arrival="1426.0" until="1456.0"></stop>
		<stop busStop="busStop_-16565_0_322" arrival="1444.0" until="1474.0"></stop>
		<stop busStop="busStop_-16571_0_830" arrival="1458.0" until="1488.0"></stop>
		<stop busStop="busStop_16570_1_831" arrival="1479.0" until="1509.0"></stop>
		<stop busStop="busStop_16932_0_832" arrival="1493.0" until="1523.0"></stop>
		<stop busStop="busStop_-16160_0_833" arrival="1542.0" until="1572.0"></stop>
		<stop busStop="busStop_-16599_0_835" arrival="1624.0" until="1654.0"></stop>
		<stop busStop="busStop_-16609_0_836" arrival="1648.0" until="1678.0"></stop>
		<stop busStop="busStop_-16615_0_837" arrival="1673.0" until="1703.0"></stop>
		<stop busStop="busStop_-16634_0_838" arrival="1687.0" until="1717.0"></stop>
		<stop busStop="busStop_-16641_0_839" arrival="1710.0" until="1740.0"></stop>
		<stop busStop="busStop_-16641_0_840" arrival="1727.0" until="1757.0"></stop>
		<stop busStop="busStop_-38555_0_841" arrival="1744.0" until="1774.0"></stop>
		<stop busStop="busStop_-16694_0_844" arrival="1793.0" until="1823.0"></stop>
		<stop busStop="busStop_-16710_0_845" arrival="1818.0" until="1848.0"></stop>
		<stop busStop="busStop_-16736_0_848" arrival="1855.0" until="1885.0"></stop>
		<stop busStop="busStop_-16743_0_849" arrival="1864.0" until="1894.0"></stop>
		<stop busStop="busStop_-16743_0_850" arrival="1878.0" until="1908.0"></stop>
		<stop busStop="busStop_-16749_0_851" arrival="1893.0" until="1923.0"></stop>
		<stop busStop="busStop_-17101_0_852" arrival="1909.0" until="1939.0"></stop>
		<stop busStop="busStop_-17147_0_854" arrival="1953.0" until="1983.0"></stop>
		<stop busStop="busStop_-16766_0_856" arrival="1979.0" until="2009.0"></stop>
		<stop busStop="busStop_-16770_0_857" arrival="1998.0" until="2028.0"></stop>
		<stop busStop="busStop_-16772_0_858" arrival="2008.0" until="2038.0"></stop>
		<stop busStop="busStop_-16774_0_859" arrival="2017.0" until="2047.0"></stop>
		<stop busStop="busStop_16777_0_860" arrival="2042.0" until="2072.0"></stop>
		<stop busStop="busStop_-16777_0_861" arrival="2052.0" until="2082.0"></stop>
		<stop busStop="busStop_16980_2_1873" arrival="2081.0" until="2111.0"></stop>
		<stop busStop="busStop_-31946_0_1849" arrival="2130.0" until="2160.0"></stop>
		<stop busStop="busStop_-27462_0_1850" arrival="2147.0" until="2177.0"></stop>
		<stop busStop="busStop_-31994_0_1819" arrival="2168.0" until="2198.0"></stop>
		<stop busStop="busStop_30426_0_867" arrival="2294.0" until="2324.0"></stop>
		<stop busStop="busStop_30431_0_868" arrival="2310.0" until="2340.0"></stop>
		<stop busStop="busStop_32225_0_869" arrival="2398.0" until="2428.0"></stop>
		<stop busStop="busStop_17341_2_870" arrival="2456.0" until="2486.0"></stop>
		<stop busStop="busStop_16934_2_871" arrival="2487.0" until="2517.0"></stop>
		<stop busStop="busStop_16705_0_872" arrival="2525.0" until="2555.0"></stop>
		<stop busStop="busStop_16664_0_874" arrival="2668.0" until="2698.0"></stop>
		<stop busStop="busStop_16591_0_879" arrival="2895.0" until="2925.0"></stop>
		<stop busStop="busStop_38559_0_880" arrival="2938.0" until="2968.0"></stop>
		<stop busStop="busStop_16568_0_881" arrival="2976.0" until="3006.0"></stop>
		<stop busStop="busStop_17307_0_884" arrival="3208.0" until="3238.0"></stop>
		<stop busStop="busStop_17308_0_885" arrival="3273.0" until="3303.0"></stop>
		<stop busStop="busStop_16497_1_886" arrival="3315.0" until="3345.0"></stop>
		<stop busStop="busStop_16489_0_887" arrival="3362.0" until="3392.0"></stop>
		<stop busStop="busStop_1521_0_891" arrival="3474.0" until="3504.0"></stop>
		<stop busStop="busStop_-1517_0_1875" arrival="3516.0" until="3546.0"></stop>
		<stop busStop="busStop_-1527_1_894" arrival="3547.0" until="3577.0"></stop>
		<stop busStop="busStop_-16951_1_1485" arrival="3581.0" until="3611.0"></stop>
		<stop busStop="busStop_-31312_0_897" arrival="3670.0" until="3700.0"></stop>
		<stop busStop="busStop_-31315_0_898" arrival="3697.0" until="3727.0"></stop>
		<stop busStop="busStop_30289_0_1876" arrival="4110.0" until="4140.0"></stop>
	</route>
	<route id="206129020_04:41:00" depart="16860.00" edges="9455 13630 13637 -9383 -9385 -9387 -38638 -2074 -2073 -1480 -1489 1489 -1489 gneE48 -1510 -1524 gneE28 gneE31 -1541 1541 gneE32 208 209 73 72 71 210 211 gneE58 64 66 -600 -834 327 62 1472 2075 2076 2077 -1014 -2805 -2667 -2716 -2715 -2673 -9588 2454 2483 -1481 70 68 186 510 511 78829 78768 78769 78766 2007 38553 2008 2009 2010 2011 2012 1430 1309 1308 1303 1276 1271 1267 1265 2370 2371 2083 2372 2373 1242 1622 1241 1240 1612 -1657 -1658 -2367 -2366 -2359 -2084 -1661 -856 352 351 349 -559 -562 -526 -527 -660 -572 -574 -525 -524 53 -642 -582 -583 -584 -1678 -1708 -1707 -1295 1959 1960 1290 1289 2266 2267 1287 1285 1284 1282 1281 1280 -1288 -1293 -1611 -1304 2210 78782 -78781 -13948 -13987 -13988 -14040 -15208 -15207 -2788 -2787 -2806 2600 14118 -14119 -13991 13990 14123 14124 14125 13989 2567 2590 14014 14015 13986 -2768 2564 2563 2562 2566 -2772">
		<stop busStop="busStop_9455_0_284" arrival="400.0" until="430.0"></stop>
		<stop busStop="busStop_13630_0_285" arrival="437.0" until="467.0"></stop>
		<stop busStop="busStop_-9383_0_286" arrival="466.0" until="496.0"></stop>
		<stop busStop="busStop_-9385_0_287" arrival="480.0" until="510.0"></stop>
		<stop busStop="busStop_-2074_0_1351" arrival="510.0" until="540.0"></stop>
		<stop busStop="busStop_1489_0_166" arrival="528.0" until="558.0"></stop>
		<stop busStop="busStop_-1510_0_2176" arrival="555.0" until="585.0"></stop>
		<stop busStop="busStop_-1524_0_2068" arrival="566.0" until="596.0"></stop>
		<stop busStop="busStop_-1541_0_493" arrival="602.0" until="632.0"></stop>
		<stop busStop="busStop_66_0_503" arrival="747.0" until="777.0"></stop>
		<stop busStop="busStop_-600_0_169" arrival="755.0" until="785.0"></stop>
		<stop busStop="busStop_327_0_170" arrival="765.0" until="795.0"></stop>
		<stop busStop="busStop_-2716_0_171" arrival="790.0" until="820.0"></stop>
		<stop busStop="busStop_-1481_0_173" arrival="854.0" until="884.0"></stop>
		<stop busStop="busStop_2007_0_1922" arrival="1007.0" until="1037.0"></stop>
		<stop busStop="busStop_2083_0_507" arrival="1379.0" until="1409.0"></stop>
		<stop busStop="busStop_2210_0_1755" arrival="2310.0" until="2340.0"></stop>
		<stop busStop="busStop_-2772_0_1925" arrival="2610.0" until="2640.0"></stop>
	</route>
	<route id="205145020_04:46:00" depart="17160.00" edges="-1539 -16491 -17292 -17291 -16516 25156 33031 33032 29965 29831 24996 24986 24944 24885 24865 24815 24800 14982 14983 9850 9813 9774 78746 9715 -2681 -2711 -2713 -2712 1528 -9875 -11391 -11390 -17828 -17827 -31887 -17895 -17894 -24963 17309 17310 16484 1540 gneE34 1524 1510 gneE49 1489 1480 64 66 -600 -834 327 62 1472 2075 2076 2077 -1014 -2805 -2667 -2716 -2715 -2673 -9588 2454 2483 -1481 70 -602 -2006 -2005 -1488 -2004 -2003 -1496 -1502 -1507 -1514 -1516 -1519 -2220 -2219 -2290 -2289 -1979 -17294 -17293 -17078 -17077 -16488 -16492 -16495 -16498 -17076 -17075 -16504 -17074 -17073 -16509 -16514 25132 30061 11382 9878 9810 9790 9746 9720 9690 9618 9580 9540 9503 9472 9394 14187 14188 9325 13939 13940 9278 9208 9197 9176 9091 13562 13563 9001 8987 8970 8960 8938 8916 1418 1417 1323 1322 1319 1318 2018 2019 1315 1311 1310 1613 2021 2022 2020 1301 1300 1299 1297 1296 1291 1283 2098 2099 1270 -1268 1269 2096 2097 1634 2094 2095 1263 1262 1261 42 171 135 149 150 41 39 36 6 5 204 203 205 31 305 479 480 303 304 28 215 353 354 508 509 1623 1206 1203 1691 1689 1690 1197 1605 1195 1194 1191 2065 1190 1189 2064 1675 1673 38561 -38561 -1673 -1675 -2064 -1189 -1190 -2065 -1191 -1194 -1195 -1605 -1197 -1690 -1689 -1691 -1203 -1206 -1623 -1023 -1022 -529 -727 -726 -811 -810 -1017 -1016 -983 -812 -555 -556 -6391 -6487 -6500 -6587 -2095 -2094 -1634 -2097 -2096 -1269 1268 -1270 -2099 -2098 -1283 -1291 -1296 -1297 -1299 -1300 -1301 -2020 -2022 -2021 -1613 -1310 1310 1613 2021 2022 2020 1301 1300 1299 1297 1296 1291 1283 2098 2099 1270 -1268 1269 2096 2097 1634 2094 2095 1263 -1263 1263 1262 1261 42 171 135 149 150 40 172 1259 1258 1256 1254 1253 1252 1251 1249 1247 2114 2115 1244 2112 2113">
		<stop busStop="busStop_-1539_0_712" arrival="244.0" until="274.0"></stop>
		<stop busStop="busStop_33031_0_991" arrival="370.0" until="400.0"></stop>
		<stop busStop="busStop_24996_1_992" arrival="429.0" until="459.0"></stop>
		<stop busStop="busStop_24944_1_993" arrival="453.0" until="483.0"></stop>
		<stop busStop="busStop_24944_1_994" arrival="472.0" until="502.0"></stop>
		<stop busStop="busStop_24815_0_995" arrival="518.0" until="548.0"></stop>
		<stop busStop="busStop_14982_0_407" arrival="535.0" until="565.0"></stop>
		<stop busStop="busStop_14983_0_408" arrival="565.0" until="595.0"></stop>
		<stop busStop="busStop_9813_0_409" arrival="604.0" until="634.0"></stop>
		<stop busStop="busStop_78746_0_412" arrival="626.0" until="656.0"></stop>
		<stop busStop="busStop_78746_0_413" arrival="646.0" until="676.0"></stop>
		<stop busStop="busStop_9715_0_996" arrival="671.0" until="701.0"></stop>
		<stop busStop="busStop_-24963_0_1713" arrival="810.0" until="840.0"></stop>
		<stop busStop="busStop_17310_0_1560" arrival="826.0" until="856.0"></stop>
		<stop busStop="busStop_17310_0_163" arrival="841.0" until="871.0"></stop>
		<stop busStop="busStop_gneE34_0_164" arrival="870.0" until="900.0"></stop>
		<stop busStop="busStop_1524_0_165" arrival="886.0" until="916.0"></stop>
		<stop busStop="busStop_1510_0_1361" arrival="914.0" until="944.0"></stop>
		<stop busStop="busStop_1489_0_166" arrival="969.0" until="999.0"></stop>
		<stop busStop="busStop_66_0_503" arrival="1025.0" until="1055.0"></stop>
		<stop busStop="busStop_-600_0_169" arrival="1040.0" until="1070.0"></stop>
		<stop busStop="busStop_327_0_170" arrival="1056.0" until="1086.0"></stop>
		<stop busStop="busStop_-2716_0_171" arrival="1099.0" until="1129.0"></stop>
		<stop busStop="busStop_2483_1_172" arrival="1188.0" until="1218.0"></stop>
		<stop busStop="busStop_-1488_0_1360" arrival="1285.0" until="1315.0"></stop>
		<stop busStop="busStop_-1488_0_175" arrival="1311.0" until="1341.0"></stop>
		<stop busStop="busStop_-1496_0_176" arrival="1353.0" until="1383.0"></stop>
		<stop busStop="busStop_-1502_0_177" arrival="1377.0" until="1407.0"></stop>
		<stop busStop="busStop_-1507_0_178" arrival="1410.0" until="1440.0"></stop>
		<stop busStop="busStop_-1514_0_179" arrival="1443.0" until="1473.0"></stop>
		<stop busStop="busStop_-1979_0_181" arrival="1556.0" until="1586.0"></stop>
		<stop busStop="busStop_-16488_0_183" arrival="1627.0" until="1657.0"></stop>
		<stop busStop="busStop_-16498_0_184" arrival="1679.0" until="1709.0"></stop>
		<stop busStop="busStop_-17075_0_312" arrival="1710.0" until="1740.0"></stop>
		<stop busStop="busStop_-17073_1_313" arrival="1723.0" until="1753.0"></stop>
		<stop busStop="busStop_9503_0_219" arrival="1797.0" until="1827.0"></stop>
		<stop busStop="busStop_1318_0_296" arrival="1973.0" until="2003.0"></stop>
		<stop busStop="busStop_1673_0_1425" arrival="2464.0" until="2494.0"></stop>
		<stop busStop="busStop_1310_0_298" arrival="2922.0" until="2952.0"></stop>
		<stop busStop="busStop_1613_0_299" arrival="2934.0" until="2964.0"></stop>
		<stop busStop="busStop_1296_0_302" arrival="2971.0" until="3001.0"></stop>
		<stop busStop="busStop_2099_0_348" arrival="3006.0" until="3036.0"></stop>
		<stop busStop="busStop_-1263_0_226" arrival="3058.0" until="3088.0"></stop>
		<stop busStop="busStop_1254_0_306" arrival="3122.0" until="3152.0"></stop>
		<stop busStop="busStop_1252_0_307" arrival="3140.0" until="3170.0"></stop>
		<stop busStop="busStop_1249_0_308" arrival="3150.0" until="3180.0"></stop>
		<stop busStop="busStop_1247_0_309" arrival="3156.0" until="3186.0"></stop>
		<stop busStop="busStop_1244_0_310" arrival="3199.0" until="3229.0"></stop>
		<stop busStop="busStop_2113_0_221" arrival="3210.0" until="3240.0"></stop>
	</route>
	<route id="204922020_04:51:00" depart="17460.00" edges="-9282 2036 2288 2291 2292 2293 2035 1695 -38553 -2007 2007 38553 -38553 -2007 -78766 -78769 -78768 -78830 -1025 -1024 -694 345 78763 78836 -78835 -13636 9476 9455 13630 13637 -9383 -9385 -9387 -38638 -2074 -2073 -1480 -1489 gneE48 -1510 -1524 gneE33 -1540 -16484 -17310 -17309 -16503 -16513 -16515 -16517 -17302 -17301 -16532 -17166 -17165 -16542 -16552 -16560 -17160 -17159 -16577 -17162 -17161 -16586 -17274 -17273 -17272 -17271 -16596 -17164 -17163 -16616 -16625 26208 26165 26135 26097 26068 -16624 -17110 -17109 -17261 -17260 -16678 -16684 -17298 -17297 -16716 -16726 -16735 -16919 -16747 -16751 -16754 -27173 -30950 -30949 -30948 gneE2 gneE3 gneE4 gneE5 gneE6 gneE7 gneE8 gneE9 -27388 -27463 -27520 -27592 -29060 -29085 -29140 -29208 -29214 -29235 -29284 -29298 -29326 -29344 -29385 -29418 -29452 -29461 -29489 -29527 -29568 -29576 -29619 -29674 -29696 -29712 -29741 -29764 29763 29925 29669 -29660">
		<stop busStop="busStop_-9282_0_354" arrival="-30.0" until="0.0"></stop>
		<stop busStop="busStop_2007_0_505" arrival="188.0" until="218.0"></stop>
		<stop busStop="busStop_-78835_0_784" arrival="353.0" until="383.0"></stop>
		<stop busStop="busStop_9455_0_284" arrival="388.0" until="418.0"></stop>
		<stop busStop="busStop_13630_0_285" arrival="433.0" until="463.0"></stop>
		<stop busStop="busStop_-9383_0_286" arrival="467.0" until="497.0"></stop>
		<stop busStop="busStop_-9385_0_287" arrival="483.0" until="513.0"></stop>
		<stop busStop="busStop_-2074_0_1351" arrival="510.0" until="540.0"></stop>
		<stop busStop="busStop_-1489_0_12" arrival="561.0" until="591.0"></stop>
		<stop busStop="busStop_gneE48_0_1555" arrival="616.0" until="646.0"></stop>
		<stop busStop="busStop_-1510_0_1579" arrival="631.0" until="661.0"></stop>
		<stop busStop="busStop_-1524_0_1354" arrival="673.0" until="703.0"></stop>
		<stop busStop="busStop_-1540_0_17" arrival="710.0" until="740.0"></stop>
		<stop busStop="busStop_-17310_0_742" arrival="734.0" until="764.0"></stop>
		<stop busStop="busStop_-17309_0_18" arrival="773.0" until="803.0"></stop>
		<stop busStop="busStop_-16503_0_19" arrival="813.0" until="843.0"></stop>
		<stop busStop="busStop_-16517_0_1557" arrival="864.0" until="894.0"></stop>
		<stop busStop="busStop_-17301_0_1357" arrival="891.0" until="921.0"></stop>
		<stop busStop="busStop_-16532_1_21" arrival="906.0" until="936.0"></stop>
		<stop busStop="busStop_-16542_0_22" arrival="940.0" until="970.0"></stop>
		<stop busStop="busStop_-16560_0_23" arrival="970.0" until="1000.0"></stop>
		<stop busStop="busStop_-17159_0_24" arrival="988.0" until="1018.0"></stop>
		<stop busStop="busStop_-17162_0_25" arrival="1010.0" until="1040.0"></stop>
		<stop busStop="busStop_-17163_0_26" arrival="1073.0" until="1103.0"></stop>
		<stop busStop="busStop_-16616_0_27" arrival="1091.0" until="1121.0"></stop>
		<stop busStop="busStop_-16625_0_28" arrival="1110.0" until="1140.0"></stop>
		<stop busStop="busStop_gneE4_0_44" arrival="1410.0" until="1440.0"></stop>
		<stop busStop="busStop_-29660_0_95" arrival="2310.0" until="2340.0"></stop>
	</route>
	<route id="205253020_04:51:00" depart="17460.00" edges="-9282 2036 2288 2291 2292 2293 2035 1695 -38553 -2007 2007 38553 -38553 -2007 -78766 -78769 -78768 -78830 -1025 -1024 -694 345 78763 78836 -78835 -13636 9476 9455 13630 13637 -9383 -9385 -9387 -38638 -2074 -2073 -1480 -1489 gneE48 -1510 -1524 gneE33 -1540 -16484 -30078 30078 -30078 -31885 -31884 -24856 -24876 -24907 -24929 -24956 -30075 -30076 -25098 -25145 -25193 -25239 -30407 -30406 -30302 -30303 -29830 -25559 -25644 -25666 -25743 -25819 -31770 -31769 -26145 -26221 -26305 -16639 -16943 -16942 -16651 -16655 -16945 -16944 -16659 -16663 -16667 -16672 -16675 -16676 -16679 -16683 -16686 -16691 -16707 -16711 -30400 -30399 -29906 -26939 -26954 -26996 -27007 -27027 -29904 -33115 -33114 -33101 -33100 -29905 -27323 -27373 -27423 -27492 -27512 27513 -27513 -27551 -27586 -29029 -29093 -29110 -29175 29176 38611 38612 29161 -29161 38613 38614 38611 38612 29161 29144 -29131 -16888 -16889 -16891 -16895 -16898 -16899 -16930 -17288 -17287 -16906 -16908 -16909 -17210 -17209 -16913 -16915 -31764 -31763 -17814 -29743 -29765 -19985 -22994">
		<stop busStop="busStop_-9282_0_354" arrival="-30.0" until="0.0"></stop>
		<stop busStop="busStop_2007_0_505" arrival="165.0" until="195.0"></stop>
		<stop busStop="busStop_-78835_0_784" arrival="311.0" until="341.0"></stop>
		<stop busStop="busStop_9455_0_284" arrival="343.0" until="373.0"></stop>
		<stop busStop="busStop_13630_0_285" arrival="383.0" until="413.0"></stop>
		<stop busStop="busStop_-9383_0_286" arrival="413.0" until="443.0"></stop>
		<stop busStop="busStop_-9385_0_287" arrival="428.0" until="458.0"></stop>
		<stop busStop="busStop_-2074_0_1351" arrival="451.0" until="481.0"></stop>
		<stop busStop="busStop_-1489_0_12" arrival="480.0" until="510.0"></stop>
		<stop busStop="busStop_gneE48_0_1555" arrival="510.0" until="540.0"></stop>
		<stop busStop="busStop_-1510_0_1579" arrival="525.0" until="555.0"></stop>
		<stop busStop="busStop_-1524_0_1354" arrival="570.0" until="600.0"></stop>
		<stop busStop="busStop_30078_0_1194" arrival="620.0" until="650.0"></stop>
		<stop busStop="busStop_-31884_0_1195" arrival="639.0" until="669.0"></stop>
		<stop busStop="busStop_-24876_0_1197" arrival="662.0" until="692.0"></stop>
		<stop busStop="busStop_-24907_0_1198" arrival="677.0" until="707.0"></stop>
		<stop busStop="busStop_-24929_0_1199" arrival="693.0" until="723.0"></stop>
		<stop busStop="busStop_-24956_0_1200" arrival="709.0" until="739.0"></stop>
		<stop busStop="busStop_-30076_0_1201" arrival="757.0" until="787.0"></stop>
		<stop busStop="busStop_-25098_0_1202" arrival="788.0" until="818.0"></stop>
		<stop busStop="busStop_-25145_0_1203" arrival="817.0" until="847.0"></stop>
		<stop busStop="busStop_-25193_0_1204" arrival="842.0" until="872.0"></stop>
		<stop busStop="busStop_-25239_0_1205" arrival="868.0" until="898.0"></stop>
		<stop busStop="busStop_-29830_0_1207" arrival="950.0" until="980.0"></stop>
		<stop busStop="busStop_-25666_0_1397" arrival="991.0" until="1021.0"></stop>
		<stop busStop="busStop_-25743_0_1209" arrival="1013.0" until="1043.0"></stop>
		<stop busStop="busStop_-25819_0_1210" arrival="1032.0" until="1062.0"></stop>
		<stop busStop="busStop_-31769_0_1211" arrival="1086.0" until="1116.0"></stop>
		<stop busStop="busStop_-16639_0_1592" arrival="1156.0" until="1186.0"></stop>
		<stop busStop="busStop_-16942_0_1214" arrival="1191.0" until="1221.0"></stop>
		<stop busStop="busStop_-16651_0_1215" arrival="1213.0" until="1243.0"></stop>
		<stop busStop="busStop_-16655_0_1216" arrival="1235.0" until="1265.0"></stop>
		<stop busStop="busStop_-16944_0_1217" arrival="1248.0" until="1278.0"></stop>
		<stop busStop="busStop_-16663_0_1218" arrival="1283.0" until="1313.0"></stop>
		<stop busStop="busStop_-16672_0_1219" arrival="1305.0" until="1335.0"></stop>
		<stop busStop="busStop_-16676_0_1220" arrival="1330.0" until="1360.0"></stop>
		<stop busStop="busStop_-16686_0_1221" arrival="1365.0" until="1395.0"></stop>
		<stop busStop="busStop_-16707_0_1399" arrival="1403.0" until="1433.0"></stop>
		<stop busStop="busStop_-16711_0_1224" arrival="1451.0" until="1481.0"></stop>
		<stop busStop="busStop_-26954_0_1225" arrival="1495.0" until="1525.0"></stop>
		<stop busStop="busStop_-27027_0_1115" arrival="1517.0" until="1547.0"></stop>
		<stop busStop="busStop_-29904_0_1116" arrival="1533.0" until="1563.0"></stop>
		<stop busStop="busStop_-29905_0_1226" arrival="1581.0" until="1611.0"></stop>
		<stop busStop="busStop_-27323_0_1227" arrival="1615.0" until="1645.0"></stop>
		<stop busStop="busStop_-27373_0_1228" arrival="1635.0" until="1665.0"></stop>
		<stop busStop="busStop_-27423_0_1229" arrival="1650.0" until="1680.0"></stop>
		<stop busStop="busStop_27513_0_1230" arrival="1688.0" until="1718.0"></stop>
		<stop busStop="busStop_-27551_0_1231" arrival="1707.0" until="1737.0"></stop>
		<stop busStop="busStop_-27586_0_1232" arrival="1726.0" until="1756.0"></stop>
		<stop busStop="busStop_-29029_0_1233" arrival="1752.0" until="1782.0"></stop>
		<stop busStop="busStop_-29093_0_1234" arrival="1777.0" until="1807.0"></stop>
		<stop busStop="busStop_-29110_0_1748" arrival="1815.0" until="1845.0"></stop>
		<stop busStop="busStop_-29175_0_1749" arrival="1872.0" until="1902.0"></stop>
		<stop busStop="busStop_29176_0_1750" arrival="1904.0" until="1934.0"></stop>
		<stop busStop="busStop_-29161_0_1236" arrival="1942.0" until="1972.0"></stop>
		<stop busStop="busStop_29144_0_1237" arrival="1961.0" until="1991.0"></stop>
		<stop busStop="busStop_-16888_0_1238" arrival="2002.0" until="2032.0"></stop>
		<stop busStop="busStop_-16889_0_1239" arrival="2024.0" until="2054.0"></stop>
		<stop busStop="busStop_-16891_0_1240" arrival="2046.0" until="2076.0"></stop>
		<stop busStop="busStop_-16895_0_1241" arrival="2069.0" until="2099.0"></stop>
		<stop busStop="busStop_-16898_0_1242" arrival="2094.0" until="2124.0"></stop>
		<stop busStop="busStop_-16930_0_1243" arrival="2129.0" until="2159.0"></stop>
		<stop busStop="busStop_-16908_0_1244" arrival="2161.0" until="2191.0"></stop>
		<stop busStop="busStop_-17209_0_1245" arrival="2189.0" until="2219.0"></stop>
		<stop busStop="busStop_-16915_0_1246" arrival="2230.0" until="2260.0"></stop>
		<stop busStop="busStop_-17814_0_1136" arrival="2252.0" until="2282.0"></stop>
		<stop busStop="busStop_-29743_0_1247" arrival="2271.0" until="2301.0"></stop>
		<stop busStop="busStop_-22994_0_1710" arrival="2310.0" until="2340.0"></stop>
	</route>
	<route id="206312020_04:51:00" depart="17460.00" edges="-9282 2036 2288 2291 2292 2293 2035 1695 -38553 -2007 2007 38553 -38553 -2007 -78766 -78769 -78768 -78830 -1025 -1024 -694 345 78763 78836 -78835 -13636 9476 9455 13630 13637 -9383 -9385 -9387 -38638 -2074 -2073 -1480 -1489 gneE48 -1510 -1524 gneE33 -1540 -16484 -17310 -17309 24963 17636 17637 17487 2467 -1535 -1536 -1537 -16485 -16486 -17059 -17061 -17060 -16496 -16500 -16501 -16502 -16506 -16508 -17270 -17269 -16973 -16526 -16528 -17290 -17289 -16534 -17252 -17251 -16540 -16543 -16547 -16553 -16975 -16974 -16561 -16565 -16571 -16572 16574 16570 16932 17054 17055 17096 -17095 -17094 -16159 -16160 -16165 -16161 -16164 -16163 -16162 -16599 -16600 -16607 -16609 -17098 -17097 -16615 -16620 -16634 -16641 -38555 -16654 -16657 -16660 -16670 -16694 -16710 -16717 -16722 -17100 -17099 -16733 -16736 -16737 -16743 -16744 -16749 -17102 -17101 -16757 -17148 -17147 -16759 -16760 -16766 -16769 -16770 -16772 -16773 -16774 -16775 -16778 16777 -16777 16777 16771 16979 16980 -27198 -30359 -31890 -31893 -31912 -31915 -31918 -31921 -31925 -31927 -31931 -31933 -31938 -31937 -30362 -31946 -31945 -27462 -31961 -31960 32037 32038 31986 31988 31990 -31994 31993 31985 -31965 -31963 -31962 31961 30428 30429 30427 30426 30431 32120 32224 32225 16996 17340 17341 16934 38556 17139 16705 16698 16668 16664 16643 17247 17248 16638 16630 16614 16936 16591 38559 16568 16926 17266 17303 17304 16978 17063 17064 17305 17306 17307 17308 16497 16489 16481 1529 1521 -1513 -1517 -1527 -1650 -16951 -16480 -17276 -17275 -17235 -17234 -31291 -31313 -31312 -31315 -31314 -25114 25115 78743 -30289 -30288 30288 30289">
		<stop busStop="busStop_-9282_0_354" arrival="-30.0" until="0.0"></stop>
		<stop busStop="busStop_2007_0_505" arrival="188.0" until="218.0"></stop>
		<stop busStop="busStop_-78835_0_784" arrival="353.0" until="383.0"></stop>
		<stop busStop="busStop_9455_0_284" arrival="388.0" until="418.0"></stop>
		<stop busStop="busStop_13630_0_285" arrival="433.0" until="463.0"></stop>
		<stop busStop="busStop_-9383_0_286" arrival="467.0" until="497.0"></stop>
		<stop busStop="busStop_-9385_0_287" arrival="483.0" until="513.0"></stop>
		<stop busStop="busStop_-2074_0_1351" arrival="510.0" until="540.0"></stop>
		<stop busStop="busStop_-1489_0_12" arrival="550.0" until="580.0"></stop>
		<stop busStop="busStop_gneE48_0_1555" arrival="593.0" until="623.0"></stop>
		<stop busStop="busStop_-1510_0_1579" arrival="605.0" until="635.0"></stop>
		<stop busStop="busStop_-1524_0_1354" arrival="638.0" until="668.0"></stop>
		<stop busStop="busStop_-1540_0_17" arrival="667.0" until="697.0"></stop>
		<stop busStop="busStop_-17310_0_742" arrival="686.0" until="716.0"></stop>
		<stop busStop="busStop_17637_0_806" arrival="920.0" until="950.0"></stop>
		<stop busStop="busStop_2467_0_1475" arrival="982.0" until="1012.0"></stop>
		<stop busStop="busStop_-1535_0_1474" arrival="992.0" until="1022.0"></stop>
		<stop busStop="busStop_-16485_0_811" arrival="1016.0" until="1046.0"></stop>
		<stop busStop="busStop_-16486_0_812" arrival="1035.0" until="1065.0"></stop>
		<stop busStop="busStop_-17060_0_813" arrival="1066.0" until="1096.0"></stop>
		<stop busStop="busStop_-16500_1_814" arrival="1085.0" until="1115.0"></stop>
		<stop busStop="busStop_-16501_0_815" arrival="1099.0" until="1129.0"></stop>
		<stop busStop="busStop_-16502_0_816" arrival="1118.0" until="1148.0"></stop>
		<stop busStop="busStop_-16506_0_817" arrival="1135.0" until="1165.0"></stop>
		<stop busStop="busStop_-16508_0_818" arrival="1154.0" until="1184.0"></stop>
		<stop busStop="busStop_-16526_0_820" arrival="1242.0" until="1272.0"></stop>
		<stop busStop="busStop_-16528_0_821" arrival="1259.0" until="1289.0"></stop>
		<stop busStop="busStop_-17289_0_822" arrival="1278.0" until="1308.0"></stop>
		<stop busStop="busStop_-16534_0_823" arrival="1297.0" until="1327.0"></stop>
		<stop busStop="busStop_-17251_0_824" arrival="1314.0" until="1344.0"></stop>