<additional xmlns:xsi="http://www.w3.org/2001/XMLSchema-instance" xsi:noNamespaceSchemaLocation="http://sumo.dlr.de/xsd/additional_file.xsd">
    <vTypeDistribution id="passenger">
        <vType id="vehDist0" tau="1.200" sigma="0.128" length="4.675" vClass="passenger" carFollowModel="Krauss" accel="2.500" decel="4.500" minGap="1.200" guiShape="passenger" speedFactor="0.820" maxSpeed="100.000" lcCooperative="1.000"/>
        <vType id="vehDist1" tau="1.200" sigma="0.135" length="4.872" vClass="passenger" carFollowModel="Krauss" accel="2.500" decel="4.500" minGap="1.200" guiShape="passenger" speedFactor="0.902" maxSpeed="100.000" lcCooperative="1.000"/>
        <vType id="vehDist2" tau="1.200" sigma="0.005" length="4.605" vClass="passenger" carFollowModel="Krauss" accel="2.500" decel="4.500" minGap="1.200" guiShape="passenger" speedFactor="1.010" maxSpeed="100.000" lcCooperative="1.000"/>
        <vType id="vehDist3" tau="1.200" sigma="0.118" length="5.248" vClass="passenger" carFollowModel="Krauss" accel="2.500" decel="4.500" minGap="1.200" guiShape="passenger" speedFactor="0.968" maxSpeed="100.000" lcCooperative="1.000"/>
        <vType id="vehDist4" tau="1.200" sigma="0.191" length="4.838" vClass="passenger" carFollowModel="Krauss" accel="2.500" decel="4.500" minGap="1.200" guiShape="passenger" speedFactor="1.092" maxSpeed="100.000" lcCooperative="1.000"/>
        <vType id="vehDist5" tau="1.200" sigma="0.146" length="5.362" vClass="passenger" carFollowModel="Krauss" accel="2.500" decel="4.500" minGap="1.200" guiShape="passenger" speedFactor="0.953" maxSpeed="100.000" lcCooperative="1.000"/>
        <vType id="vehDist6" tau="1.200" sigma="0.166" length="5.194" vClass="passenger" carFollowModel="Krauss" accel="2.500" decel="4.500" minGap="1.200" guiShape="passenger" speedFactor="1.045" maxSpeed="100.000" lcCooperative="1.000"/>
        <vType id="vehDist7" tau="1.200" sigma="0.009" length="4.769" vClass="passenger" carFollowModel="Krauss" accel="2.500" decel="4.500" minGap="1.200" guiShape="passenger" speedFactor="0.906" maxSpeed="100.000" lcCooperative="1.000"/>
        <vType id="vehDist8" tau="1.200" sigma="0.020" length="4.691" vClass="passenger" carFollowModel="Krauss" accel="2.500" decel="4.500" minGap="1.200" guiShape="passenger" speedFactor="0.963" maxSpeed="100.000" lcCooperative="1.000"/>
        <vType id="vehDist9" tau="1.200" sigma="0.042" length="5.030" vClass="passenger" carFollowModel="Krauss" accel="2.500" decel="4.500" minGap="1.200" guiShape="passenger" speedFactor="0.792" maxSpeed="100.000" lcCooperative="1.000"/>
        <vType id="vehDist10" tau="1.200" sigma="0.033" length="5.008" vClass="passenger" carFollowModel="Krauss" accel="2.500" decel="4.500" minGap="1.200" guiShape="passenger" speedFactor="1.202" maxSpeed="100.000" lcCooperative="1.000"/>
        <vType id="vehDist11" tau="1.200" sigma="0.155" length="4.814" vClass="passenger" carFollowModel="Krauss" accel="2.500" decel="4.500" minGap="1.200" guiShape="passenger" speedFactor="1.094" maxSpeed="100.000" lcCooperative="1.000"/>
        <vType id="vehDist12" tau="1.200" sigma="0.131" length="4.481" vClass="passenger" carFollowModel="Krauss" accel="2.500" decel="4.500" minGap="1.200" guiShape="passenger" speedFactor="0.990" maxSpeed="100.000" lcCooperative="1.000"/>
        <vType id="vehDist13" tau="1.200" sigma="0.049" length="4.929" vClass="passenger" carFollowModel="Krauss" accel="2.500" decel="4.500" minGap="1.200" guiShape="passenger" speedFactor="1.142" maxSpeed="100.000" lcCooperative="1.000"/>
        <vType id="vehDist14" tau="1.200" sigma="0.080" length="4.904" vClass="passenger" carFollowModel="Krauss" accel="2.500" decel="4.500" minGap="1.200" guiShape="passenger" speedFactor="1.105" maxSpeed="100.000" lcCooperative="1.000"/>
        <vType id="vehDist15" tau="1.200" sigma="0.084" length="4.658" vClass="passenger" carFollowModel="Krauss" accel="2.500" decel="4.500" minGap="1.200" guiShape="passenger" speedFactor="1.067" maxSpeed="100.000" lcCooperative="1.000"/>
        <vType id="vehDist16" tau="1.200" sigma="0.053" length="4.954" vClass="passenger" carFollowModel="Krauss" accel="2.500" decel="4.500" minGap="1.200" guiShape="passenger" speedFactor="0.980" maxSpeed="100.000" lcCooperative="1.000"/>
        <vType id="vehDist17" tau="1.200" sigma="0.191" length="5.075" vClass="passenger" carFollowModel="Krauss" accel="2.500" decel="4.500" minGap="1.200" guiShape="passenger" speedFactor="1.000" maxSpeed="100.000" lcCooperative="1.000"/>
        <vType id="vehDist18" tau="1.200" sigma="0.183" length="5.081" vClass="passenger" carFollowModel="Krauss" accel="2.500" decel="4.500" minGap="1.200" guiShape="passenger" speedFactor="1.061" maxSpeed="100.000" lcCooperative="1.000"/>
        <vType id="vehDist19" tau="1.200" sigma="0.031" length="5.096" vClass="passenger" carFollowModel="Krauss" accel="2.500" decel="4.500" minGap="1.200" guiShape="passenger" speedFactor="1.102" maxSpeed="100.000" lcCooperative="1.000"/>
        <vType id="vehDist20" tau="1.200" sigma="0.000" length="5.064" vClass="passenger" carFollowModel="Krauss" accel="2.500" decel="4.500" minGap="1.200" guiShape="passenger" speedFactor="0.997" maxSpeed="100.000" lcCooperative="1.000"/>
        <vType id="vehDist21" tau="1.200" sigma="0.152" length="5.005" vClass="passenger" carFollowModel="Krauss" accel="2.500" decel="4.500" minGap="1.200" guiShape="passenger" speedFactor="0.991" maxSpeed="100.000" lcCooperative="1.000"/>
        <vType id="vehDist22" tau="1.200" sigma="0.053" length="5.122" vClass="passenger" carFollowModel="Krauss" accel="2.500" decel="4.500" minGap="1.200" guiShape="passenger" speedFactor="0.893" maxSpeed="100.000" lcCooperative="1.000"/>
        <vType id="vehDist23" tau="1.200" sigma="0.146" length="4.751" vClass="passenger" carFollowModel="Krauss" accel="2.500" decel="4.500" minGap="1.200" guiShape="passenger" speedFactor="0.978" maxSpeed="100.000" lcCooperative="1.000"/>
        <vType id="vehDist24" tau="1.200" sigma="0.024" length="4.757" vClass="passenger" carFollowModel="Krauss" accel="2.500" decel="4.500" minGap="1.200" guiShape="passenger" speedFactor="1.020" maxSpeed="100.000" lcCooperative="1.000"/>
        <vType id="vehDist25" tau="1.200" sigma="0.044" length="4.501" vClass="passenger" carFollowModel="Krauss" accel="2.500" decel="4.500" minGap="1.200" guiShape="passenger" speedFactor="0.864" maxSpeed="100.000" lcCooperative="1.000"/>
        <vType id="vehDist26" tau="1.200" sigma="0.043" length="4.946" vClass="passenger" carFollowModel="Krauss" accel="2.500" decel="4.500" minGap="1.200" guiShape="passenger" speedFactor="1.254" maxSpeed="100.000" lcCooperative="1.000"/>
        <vType id="vehDist27" tau="1.200" sigma="0.038" length="4.657" vClass="passenger" carFollowModel="Krauss" accel="2.500" decel="4.500" minGap="1.200" guiShape="passenger" speedFactor="0.975" maxSpeed="100.000" lcCooperative="1.000"/>
        <vType id="vehDist28" tau="1.200" sigma="0.146" length="4.669" vClass="passenger" carFollowModel="Krauss" accel="2.500" decel="4.500" minGap="1.200" guiShape="passenger" speedFactor="0.801" maxSpeed="100.000" lcCooperative="1.000"/>
        <vType id="vehDist29" tau="1.200" sigma="0.050" length="4.707" vClass="passenger" carFollowModel="Krauss" accel="2.500" decel="4.500" minGap="1.200" guiShape="passenger" speedFactor="0.981" maxSpeed="100.000" lcCooperative="1.000"/>
        <vType id="vehDist30" tau="1.200" sigma="0.050" length="5.161" vClass="passenger" carFollowModel="Krauss" accel="2.500" decel="4.500" minGap="1.200" guiShape="passenger" speedFactor="1.138" maxSpeed="100.000" lcCooperative="1.000"/>
        <vType id="vehDist31" tau="1.200" sigma="0.010" length="5.044" vClass="passenger" carFollowModel="Krauss" accel="2.500" decel="4.500" minGap="1.200" guiShape="passenger" speedFactor="0.997" maxSpeed="100.000" lcCooperative="1.000"/>
        <vType id="vehDist32" tau="1.200" sigma="0.080" length="4.656" vClass="passenger" carFollowModel="Krauss" accel="2.500" decel="4.500" minGap="1.200" guiShape="passenger" speedFactor="1.089" maxSpeed="100.000" lcCooperative="1.000"/>
        <vType id="vehDist33" tau="1.200" sigma="0.085" length="4.968" vClass="passenger" carFollowModel="Krauss" accel="2.500" decel="4.500" minGap="1.200" guiShape="passenger" speedFactor="0.916" maxSpeed="100.000" lcCooperative="1.000"/>
        <vType id="vehDist34" tau="1.200" sigma="0.194" length="4.959" vClass="passenger" carFollowModel="Krauss" accel="2.500" decel="4.500" minGap="1.200" guiShape="passenger" speedFactor="1.045" maxSpeed="100.000" lcCooperative="1.000"/>
        <vType id="vehDist35" tau="1.200" sigma="0.117" length="4.907" vClass="passenger" carFollowModel="Krauss" accel="2.500" decel="4.500" minGap="1.200" guiShape="passenger" speedFactor="0.912" maxSpeed="100.000" lcCooperative="1.000"/>
        <vType id="vehDist36" tau="1.200" sigma="0.119" length="4.979" vClass="passenger" carFollowModel="Krauss" accel="2.500" decel="4.500" minGap="1.200" guiShape="passenger" speedFactor="0.893" maxSpeed="100.000" lcCooperative="1.000"/>
        <vType id="vehDist37" tau="1.200" sigma="0.124" length="4.833" vClass="passenger" carFollowModel="Krauss" accel="2.500" decel="4.500" minGap="1.200" guiShape="passenger" speedFactor="1.060" maxSpeed="100.000" lcCooperative="1.000"/>
        <vType id="vehDist38" tau="1.200" sigma="0.041" length="4.997" vClass="passenger" carFollowModel="Krauss" accel="2.500" decel="4.500" minGap="1.200" guiShape="passenger" speedFactor="0.946" maxSpeed="100.000" lcCooperative="1.000"/>
        <vType id="vehDist39" tau="1.200" sigma="0.060" length="4.646" vClass="passenger" carFollowModel="Krauss" accel="2.500" decel="4.500" minGap="1.200" guiShape="passenger" speedFactor="0.865" maxSpeed="100.000" lcCooperative="1.000"/>
        <vType id="vehDist40" tau="1.200" sigma="0.200" length="4.766" vClass="passenger" carFollowModel="Krauss" accel="2.500" decel="4.500" minGap="1.200" guiShape="passenger" speedFactor="1.103" maxSpeed="100.000" lcCooperative="1.000"/>
        <vType id="vehDist41" tau="1.200" sigma="0.032" length="5.286" vClass="passenger" carFollowModel="Krauss" accel="2.500" decel="4.500" minGap="1.200" guiShape="passenger" speedFactor="1.078" maxSpeed="100.000" lcCooperative="1.000"/>
        <vType id="vehDist42" tau="1.200" sigma="0.133" length="4.925" vClass="passenger" carFollowModel="Krauss" accel="2.500" decel="4.500" minGap="1.200" guiShape="passenger" speedFactor="1.064" maxSpeed="100.000" lcCooperative="1.000"/>
        <vType id="vehDist43" tau="1.200" sigma="0.041" length="4.963" vClass="passenger" carFollowModel="Krauss" accel="2.500" decel="4.500" minGap="1.200" guiShape="passenger" speedFactor="0.979" maxSpeed="100.000" lcCooperative="1.000"/>
        <vType id="vehDist44" tau="1.200" sigma="0.169" length="4.657" vClass="passenger" carFollowModel="Krauss" accel="2.500" decel="4.500" minGap="1.200" guiShape="passenger" speedFactor="1.128" maxSpeed="100.000" lcCooperative="1.000"/>
        <vType id="vehDist45" tau="1.200" sigma="0.052" length="5.085" vClass="passenger" carFollowModel="Krauss" accel="2.500" decel="4.500" minGap="1.200" guiShape="passenger" speedFactor="0.987" maxSpeed="100.000" lcCooperative="1.000"/>
        <vType id="vehDist46" tau="1.200" sigma="0.015" length="4.995" vClass="passenger" carFollowModel="Krauss" accel="2.500" decel="4.500" minGap="1.200" guiShape="passenger" speedFactor="1.017" maxSpeed="100.000" lcCooperative="1.000"/>
        <vType id="vehDist47" tau="1.200" sigma="0.025" length="5.073" vClass="passenger" carFollowModel="Krauss" accel="2.500" decel="4.500" minGap="1.200" guiShape="passenger" speedFactor="0.952" maxSpeed="100.000" lcCooperative="1.000"/>
        <vType id="vehDist48" tau="1.200" sigma="0.156" length="5.122" vClass="passenger" carFollowModel="Krauss" accel="2.500" decel="4.500" minGap="1.200" guiShape="passenger" speedFactor="1.024" maxSpeed="100.000" lcCooperative="1.000"/>
        <vType id="vehDist49" tau="1.200" sigma="0.186" length="5.045" vClass="passenger" carFollowModel="Krauss" accel="2.500" decel="4.500" minGap="1.200" guiShape="passenger" speedFactor="1.055" maxSpeed="100.000" lcCooperative="1.000"/>
        <vType id="vehDist50" tau="1.200" sigma="0.174" length="5.058" vClass="passenger" carFollowModel="Krauss" accel="2.500" decel="4.500" minGap="1.200" guiShape="passenger" speedFactor="1.101" maxSpeed="100.000" lcCooperative="1.000"/>
        <vType id="vehDist51" tau="1.200" sigma="0.061" length="5.031" vClass="passenger" carFollowModel="Krauss" accel="2.500" decel="4.500" minGap="1.200" guiShape="passenger" speedFactor="0.783" maxSpeed="100.000" lcCooperative="1.000"/>
        <vType id="vehDist52" tau="1.200" sigma="0.193" length="4.689" vClass="passenger" carFollowModel="Krauss" accel="2.500" decel="4.500" minGap="1.200" guiShape="passenger" speedFactor="1.102" maxSpeed="100.000" lcCooperative="1.000"/>
        <vType id="vehDist53" tau="1.200" sigma="0.023" length="5.116" vClass="passenger" carFollowModel="Krauss" accel="2.500" decel="4.500" minGap="1.200" guiShape="passenger" speedFactor="0.881" maxSpeed="100.000" lcCooperative="1.000"/>
        <vType id="vehDist54" tau="1.200" sigma="0.146" length="4.738" vClass="passenger" carFollowModel="Krauss" accel="2.500" decel="4.500" minGap="1.200" guiShape="passenger" speedFactor="1.003" maxSpeed="100.000" lcCooperative="1.000"/>
        <vType id="vehDist55" tau="1.200" sigma="0.115" length="4.611" vClass="passenger" carFollowModel="Krauss" accel="2.500" decel="4.500" minGap="1.200" guiShape="passenger" speedFactor="1.024" maxSpeed="100.000" lcCooperative="1.000"/>
        <vType id="vehDist56" tau="1.200" sigma="0.148" length="4.992" vClass="passenger" carFollowModel="Krauss" accel="2.500" decel="4.500" minGap="1.200" guiShape="passenger" speedFactor="0.958" maxSpeed="100.000" lcCooperative="1.000"/>
        <vType id="vehDist57" tau="1.200" sigma="0.170" length="5.008" vClass="passenger" carFollowModel="Krauss" accel="2.500" decel="4.500" minGap="1.200" guiShape="passenger" speedFactor="0.945" maxSpeed="100.000" lcCooperative="1.000"/>
        <vType id="vehDist58" tau="1.200" sigma="0.080" length="4.820" vClass="passenger" carFollowModel="Krauss" accel="2.500" decel="4.500" minGap="1.200" guiShape="passenger" speedFactor="0.771" maxSpeed="100.000" lcCooperative="1.000"/>
        <vType id="vehDist59" tau="1.200" sigma="0.135" length="5.259" vClass="passenger" carFollowModel="Krauss" accel="2.500" decel="4.500" minGap="1.200" guiShape="passenger" speedFactor="0.924" maxSpeed="100.000" lcCooperative="1.000"/>
        <vType id="vehDist60" tau="1.200" sigma="0.000" length="4.772" vClass="passenger" carFollowModel="Krauss" accel="2.500" decel="4.500" minGap="1.200" guiShape="passenger" speedFactor="1.040" maxSpeed="100.000" lcCooperative="1.000"/>
        <vType id="vehDist61" tau="1.200" sigma="0.093" length="4.875" vClass="passenger" carFollowModel="Krauss" accel="2.500" decel="4.500" minGap="1.200" guiShape="passenger" speedFactor="0.953" maxSpeed="100.000" lcCooperative="1.000"/>
        <vType id="vehDist62" tau="1.200" sigma="0.159" length="4.914" vClass="passenger" carFollowModel="Krauss" accel="2.500" decel="4.500" minGap="1.200" guiShape="passenger" speedFactor="0.844" maxSpeed="100.000" lcCooperative="1.000"/>
        <vType id="vehDist63" tau="1.200" sigma="0.150" length="4.976" vClass="passenger" carFollowModel="Krauss" accel="2.500" decel="4.500" minGap="1.200" guiShape="passenger" speedFactor="0.917" maxSpeed="100.000" lcCooperative="1.000"/>
        <vType id="vehDist64" tau="1.200" sigma="0.170" length="4.650" vClass="passenger" carFollowModel="Krauss" accel="2.500" decel="4.500" minGap="1.200" guiShape="passenger" speedFactor="1.028" maxSpeed="100.000" lcCooperative="1.000"/>
        <vType id="vehDist65" tau="1.200" sigma="0.139" length="4.897" vClass="passenger" carFollowModel="Krauss" accel="2.500" decel="4.500" minGap="1.200" guiShape="passenger" speedFactor="1.187" maxSpeed="100.000" lcCooperative="1.000"/>
        <vType id="vehDist66" tau="1.200" sigma="0.021" length="4.869" vClass="passenger" carFollowModel="Krauss" accel="2.500" decel="4.500" minGap="1.200" guiShape="passenger" speedFactor="1.163" maxSpeed="100.000" lcCooperative="1.000"/>
        <vType id="vehDist67" tau="1.200" sigma="0.010" length="4.825" vClass="passenger" carFollowModel="Krauss" accel="2.500" decel="4.500" minGap="1.200" guiShape="passenger" speedFactor="1.328" maxSpeed="100.000" lcCooperative="1.000"/>
        <vType id="vehDist68" tau="1.200" sigma="0.178" length="5.038" vClass="passenger" carFollowModel="Krauss" accel="2.500" decel="4.500" minGap="1.200" guiShape="passenger" speedFactor="1.005" maxSpeed="100.000" lcCooperative="1.000"/>
        <vType id="vehDist69" tau="1.200" sigma="0.110" length="4.888" vClass="passenger" carFollowModel="Krauss" accel="2.500" decel="4.500" minGap="1.200" guiShape="passenger" speedFactor="0.880" maxSpeed="100.000" lcCooperative="1.000"/>
        <vType id="vehDist70" tau="1.200" sigma="0.153" length="4.920" vClass="passenger" carFollowModel="Krauss" accel="2.500" decel="4.500" minGap="1.200" guiShape="passenger" speedFactor="0.958" maxSpeed="100.000" lcCooperative="1.000"/>
        <vType id="vehDist71" tau="1.200" sigma="0.057" length="4.785" vClass="passenger" carFollowModel="Krauss" accel="2.500" decel="4.500" minGap="1.200" guiShape="passenger" speedFactor="1.008" maxSpeed="100.000" lcCooperative="1.000"/>
        <vType id="vehDist72" tau="1.200" sigma="0.046" length="5.127" vClass="passenger" carFollowModel="Krauss" accel="2.500" decel="4.500" minGap="1.200" guiShape="passenger" speedFactor="0.874" maxSpeed="100.000" lcCooperative="1.000"/>
        <vType id="vehDist73" tau="1.200" sigma="0.109" length="4.864" vClass="passenger" carFollowModel="Krauss" accel="2.500" decel="4.500" minGap="1.200" guiShape="passenger" speedFactor="0.856" maxSpeed="100.000" lcCooperative="1.000"/>
        <vType id="vehDist74" tau="1.200" sigma="0.117" length="5.368" vClass="passenger" carFollowModel="Krauss" accel="2.500" decel="4.500" minGap="1.200" guiShape="passenger" speedFactor="1.074" maxSpeed="100.000" lcCooperative="1.000"/>
        <vType id="vehDist75" tau="1.200" sigma="0.001" length="4.694" vClass="passenger" carFollowModel="Krauss" accel="2.500" decel="4.500" minGap="1.200" guiShape="passenger" speedFactor="0.945" maxSpeed="100.000" lcCooperative="1.000"/>
        <vType id="vehDist76" tau="1.200" sigma="0.109" length="4.945" vClass="passenger" carFollowModel="Krauss" accel="2.500" decel="4.500" minGap="1.200" guiShape="passenger" speedFactor="0.915" maxSpeed="100.000" lcCooperative="1.000"/>
        <vType id="vehDist77" tau="1.200" sigma="0.006" length="4.725" vClass="passenger" carFollowModel="Krauss" accel="2.500" decel="4.500" minGap="1.200" guiShape="passenger" speedFactor="0.980" maxSpeed="100.000" lcCooperative="1.000"/>
        <vType id="vehDist78" tau="1.200" sigma="0.093" length="4.562" vClass="passenger" carFollowModel="Krauss" accel="2.500" decel="4.500" minGap="1.200" guiShape="passenger" speedFactor="0.866" maxSpeed="100.000" lcCooperative="1.000"/>
        <vType id="vehDist79" tau="1.200" sigma="0.113" length="4.668" vClass="passenger" carFollowModel="Krauss" accel="2.500" decel="4.500" minGap="1.200" guiShape="passenger" speedFactor="0.876" maxSpeed="100.000" lcCooperative="1.000"/>
        <vType id="vehDist80" tau="1.200" sigma="0.042" length="4.651" vClass="passenger" carFollowModel="Krauss" accel="2.500" decel="4.500" minGap="1.200" guiShape="passenger" speedFactor="0.916" maxSpeed="100.000" lcCooperative="1.000"/>
        <vType id="vehDist81" tau="1.200" sigma="0.166" length="4.807" vClass="passenger" carFollowModel="Krauss" accel="2.500" decel="4.500" minGap="1.200" guiShape="passenger" speedFactor="1.118" maxSpeed="100.000" lcCooperative="1.000"/>
        <vType id="vehDist82" tau="1.200" sigma="0.130" length="4.764" vClass="passenger" carFollowModel="Krauss" accel="2.500" decel="4.500" minGap="1.200" guiShape="passenger" speedFactor="1.067" maxSpeed="100.000" lcCooperative="1.000"/>
        <vType id="vehDist83" tau="1.200" sigma="0.044" length="5.194" vClass="passenger" carFollowModel="Krauss" accel="2.500" decel="4.500" minGap="1.200" guiShape="passenger" speedFactor="0.855" maxSpeed="100.000" lcCooperative="1.000"/>
        <vType id="vehDist84" tau="1.200" sigma="0.150" length="4.663" vClass="passenger" carFollowModel="Krauss" accel="2.500" decel="4.500" minGap="1.200" guiShape="passenger" speedFactor="0.938" maxSpeed="100.000" lcCooperative="1.000"/>
        <vType id="vehDist85" tau="1.200" sigma="0.015" length="5.075" vClass="passenger" carFollowModel="Krauss" accel="2.500" decel="4.500" minGap="1.200" guiShape="passenger" speedFactor="1.150" maxSpeed="100.000" lcCooperative="1.000"/>
        <vType id="vehDist86" tau="1.200" sigma="0.024" length="4.808" vClass="passenger" carFollowModel="Krauss" accel="2.500" decel="4.500" minGap="1.200" guiShape="passenger" speedFactor="0.955" maxSpeed="100.000" lcCooperative="1.000"/>
        <vType id="vehDist87" tau="1.200" sigma="0.068" length="5.172" vClass="passenger" carFollowModel="Krauss" accel="2.500" decel="4.500" minGap="1.200" guiShape="passenger" speedFactor="1.063" maxSpeed="100.000" lcCooperative="1.000"/>
        <vType id="vehDist88" tau="1.200" sigma="0.147" length="5.119" vClass="passenger" carFollowModel="Krauss" accel="2.500" decel="4.500" minGap="1.200" guiShape="passenger" speedFactor="1.114" maxSpeed="100.000" lcCooperative="1.000"/>
        <vType id="vehDist89" tau="1.200" sigma="0.097" length="4.818" vClass="passenger" carFollowModel="Krauss" accel="2.500" decel="4.500" minGap="1.200" guiShape="passenger" speedFactor="0.732" maxSpeed="100.000" lcCooperative="1.000"/>
        <vType id="vehDist90" tau="1.200" sigma="0.166" length="4.736" vClass="passenger" carFollowModel="Krauss" accel="2.500" decel="4.500" minGap="1.200" guiShape="passenger" speedFactor="1.030" maxSpeed="100.000" lcCooperative="1.000"/>
        <vType id="vehDist91" tau="1.200" sigma="0.006" length="5.047" vClass="passenger" carFollowModel="Krauss" accel="2.500" decel="4.500" minGap="1.200" guiShape="passenger" speedFactor="0.756" maxSpeed="100.000" lcCooperative="1.000"/>
        <vType id="vehDist92" tau="1.200" sigma="0.068" length="5.337" vClass="passenger" carFollowModel="Krauss" accel="2.500" decel="4.500" minGap="1.200" guiShape="passenger" speedFactor="1.074" maxSpeed="100.000" lcCooperative="1.000"/>
        <vType id="vehDist93" tau="1.200" sigma="0.152" length="5.085" vClass="passenger" carFollowModel="Krauss" accel="2.500" decel="4.500" minGap="1.200" guiShape="passenger" speedFactor="0.992" maxSpeed="100.000" lcCooperative="1.000"/>
        <vType id="vehDist94" tau="1.200" sigma="0.019" length="4.590" vClass="passenger" carFollowModel="Krauss" accel="2.500" decel="4.500" minGap="1.200" guiShape="passenger" speedFactor="0.921" maxSpeed="100.000" lcCooperative="1.000"/>
        <vType id="vehDist95" tau="1.200" sigma="0.095" length="4.918" vClass="passenger" carFollowModel="Krauss" accel="2.500" decel="4.500" minGap="1.200" guiShape="passenger" speedFactor="1.063" maxSpeed="100.000" lcCooperative="1.000"/>
        <vType id="vehDist96" tau="1.200" sigma="0.141" length="4.795" vClass="passenger" carFollowModel="Krauss" accel="2.500" decel="4.500" minGap="1.200" guiShape="passenger" speedFactor="0.919" maxSpeed="100.000" lcCooperative="1.000"/>
        <vType id="vehDist97" tau="1.200" sigma="0.024" length="4.952" vClass="passenger" carFollowModel="Krauss" accel="2.500" decel="4.500" minGap="1.200" guiShape="passenger" speedFactor="0.931" maxSpeed="100.000" lcCooperative="1.000"/>
        <vType id="vehDist98" tau="1.200" sigma="0.097" length="4.912" vClass="passenger" carFollowModel="Krauss" accel="2.500" decel="4.500" minGap="1.200" guiShape="passenger" speedFactor="0.915" maxSpeed="100.000" lcCooperative="1.000"/>
        <vType id="vehDist99" tau="1.200" sigma="0.045" length="4.916" vClass="passenger" carFollowModel="Krauss" accel="2.500" decel="4.500" minGap="1.200" guiShape="passenger" speedFactor="1.039" maxSpeed="100.000" lcCooperative="1.000"/>
    </vTypeDistribution>
</additional>
