<additional xmlns:xsi="http://www.w3.org/2001/XMLSchema-instance" xsi:noNamespaceSchemaLocation="http://sumo.dlr.de/xsd/additional_file.xsd">
    <vTypeDistribution id="passenger">
        <vType accel="3.000" carFollowModel="Krauss" decel="5.000" guiShape="passenger" id="passenger0" length="4.949" minGap="1.500" speedFactor="0.921" vClass="passenger"/>
        <vType accel="3.000" carFollowModel="Krauss" decel="5.000" guiShape="passenger" id="passenger1" length="5.151" minGap="1.500" speedFactor="0.978" vClass="passenger"/>
        <vType accel="3.000" carFollowModel="Krauss" decel="5.000" guiShape="passenger" id="passenger2" length="4.705" minGap="1.500" speedFactor="1.090" vClass="passenger"/>
        <vType accel="3.000" carFollowModel="Krauss" decel="5.000" guiShape="passenger" id="passenger3" length="4.666" minGap="1.500" speedFactor="1.278" vClass="passenger"/>
        <vType accel="3.000" carFollowModel="Krauss" decel="5.000" guiShape="passenger" id="passenger4" length="4.835" minGap="1.500" speedFactor="1.189" vClass="passenger"/>
        <vType accel="3.000" carFollowModel="Krauss" decel="5.000" guiShape="passenger" id="passenger5" length="5.201" minGap="1.500" speedFactor="1.312" vClass="passenger"/>
        <vType accel="3.000" carFollowModel="Krauss" decel="5.000" guiShape="passenger" id="passenger6" length="5.362" minGap="1.500" speedFactor="0.926" vClass="passenger"/>
        <vType accel="3.000" carFollowModel="Krauss" decel="5.000" guiShape="passenger" id="passenger7" length="5.196" minGap="1.500" speedFactor="1.235" vClass="passenger"/>
        <vType accel="3.000" carFollowModel="Krauss" decel="5.000" guiShape="passenger" id="passenger8" length="4.974" minGap="1.500" speedFactor="0.895" vClass="passenger"/>
        <vType accel="3.000" carFollowModel="Krauss" decel="5.000" guiShape="passenger" id="passenger9" length="4.712" minGap="1.500" speedFactor="0.848" vClass="passenger"/>
        <vType accel="3.000" carFollowModel="Krauss" decel="5.000" guiShape="passenger" id="passenger10" length="4.973" minGap="1.500" speedFactor="0.955" vClass="passenger"/>
        <vType accel="3.000" carFollowModel="Krauss" decel="5.000" guiShape="passenger" id="passenger11" length="5.030" minGap="1.500" speedFactor="0.667" vClass="passenger"/>
        <vType accel="3.000" carFollowModel="Krauss" decel="5.000" guiShape="passenger" id="passenger12" length="4.714" minGap="1.500" speedFactor="1.050" vClass="passenger"/>
        <vType accel="3.000" carFollowModel="Krauss" decel="5.000" guiShape="passenger" id="passenger13" length="4.814" minGap="1.500" speedFactor="1.151" vClass="passenger"/>
        <vType accel="3.000" carFollowModel="Krauss" decel="5.000" guiShape="passenger" id="passenger14" length="4.988" minGap="1.500" speedFactor="1.210" vClass="passenger"/>
        <vType accel="3.000" carFollowModel="Krauss" decel="5.000" guiShape="passenger" id="passenger15" length="4.793" minGap="1.500" speedFactor="1.023" vClass="passenger"/>
        <vType accel="3.000" carFollowModel="Krauss" decel="5.000" guiShape="passenger" id="passenger16" length="5.184" minGap="1.500" speedFactor="0.965" vClass="passenger"/>
        <vType accel="3.000" carFollowModel="Krauss" decel="5.000" guiShape="passenger" id="passenger17" length="4.541" minGap="1.500" speedFactor="1.139" vClass="passenger"/>
        <vType accel="3.000" carFollowModel="Krauss" decel="5.000" guiShape="passenger" id="passenger18" length="4.658" minGap="1.500" speedFactor="1.108" vClass="passenger"/>
        <vType accel="3.000" carFollowModel="Krauss" decel="5.000" guiShape="passenger" id="passenger19" length="4.677" minGap="1.500" speedFactor="0.811" vClass="passenger"/>
        <vType accel="3.000" carFollowModel="Krauss" decel="5.000" guiShape="passenger" id="passenger20" length="4.556" minGap="1.500" speedFactor="1.140" vClass="passenger"/>
        <vType accel="3.000" carFollowModel="Krauss" decel="5.000" guiShape="passenger" id="passenger21" length="4.900" minGap="1.500" speedFactor="0.847" vClass="passenger"/>
        <vType accel="3.000" carFollowModel="Krauss" decel="5.000" guiShape="passenger" id="passenger22" length="4.944" minGap="1.500" speedFactor="1.156" vClass="passenger"/>
        <vType accel="3.000" carFollowModel="Krauss" decel="5.000" guiShape="passenger" id="passenger23" length="5.104" minGap="1.500" speedFactor="0.944" vClass="passenger"/>
        <vType accel="3.000" carFollowModel="Krauss" decel="5.000" guiShape="passenger" id="passenger24" length="4.623" minGap="1.500" speedFactor="1.084" vClass="passenger"/>
        <vType accel="3.000" carFollowModel="Krauss" decel="5.000" guiShape="passenger" id="passenger25" length="4.881" minGap="1.500" speedFactor="0.973" vClass="passenger"/>
        <vType accel="3.000" carFollowModel="Krauss" decel="5.000" guiShape="passenger" id="passenger26" length="4.950" minGap="1.500" speedFactor="0.881" vClass="passenger"/>
        <vType accel="3.000" carFollowModel="Krauss" decel="5.000" guiShape="passenger" id="passenger27" length="4.856" minGap="1.500" speedFactor="0.866" vClass="passenger"/>
        <vType accel="3.000" carFollowModel="Krauss" decel="5.000" guiShape="passenger" id="passenger28" length="4.765" minGap="1.500" speedFactor="0.905" vClass="passenger"/>
        <vType accel="3.000" carFollowModel="Krauss" decel="5.000" guiShape="passenger" id="passenger29" length="4.501" minGap="1.500" speedFactor="0.783" vClass="passenger"/>
        <vType accel="3.000" carFollowModel="Krauss" decel="5.000" guiShape="passenger" id="passenger30" length="4.787" minGap="1.500" speedFactor="1.279" vClass="passenger"/>
        <vType accel="3.000" carFollowModel="Krauss" decel="5.000" guiShape="passenger" id="passenger31" length="4.856" minGap="1.500" speedFactor="1.104" vClass="passenger"/>
        <vType accel="3.000" carFollowModel="Krauss" decel="5.000" guiShape="passenger" id="passenger32" length="4.657" minGap="1.500" speedFactor="0.961" vClass="passenger"/>
        <vType accel="3.000" carFollowModel="Krauss" decel="5.000" guiShape="passenger" id="passenger33" length="5.141" minGap="1.500" speedFactor="0.960" vClass="passenger"/>
        <vType accel="3.000" carFollowModel="Krauss" decel="5.000" guiShape="passenger" id="passenger34" length="5.065" minGap="1.500" speedFactor="0.846" vClass="passenger"/>
        <vType accel="3.000" carFollowModel="Krauss" decel="5.000" guiShape="passenger" id="passenger35" length="4.863" minGap="1.500" speedFactor="0.887" vClass="passenger"/>
        <vType accel="3.000" carFollowModel="Krauss" decel="5.000" guiShape="passenger" id="passenger36" length="4.918" minGap="1.500" speedFactor="1.115" vClass="passenger"/>
        <vType accel="3.000" carFollowModel="Krauss" decel="5.000" guiShape="passenger" id="passenger37" length="4.894" minGap="1.500" speedFactor="0.971" vClass="passenger"/>
        <vType accel="3.000" carFollowModel="Krauss" decel="5.000" guiShape="passenger" id="passenger38" length="4.527" minGap="1.500" speedFactor="0.979" vClass="passenger"/>
        <vType accel="3.000" carFollowModel="Krauss" decel="5.000" guiShape="passenger" id="passenger39" length="4.968" minGap="1.500" speedFactor="0.865" vClass="passenger"/>
        <vType accel="3.000" carFollowModel="Krauss" decel="5.000" guiShape="passenger" id="passenger40" length="4.957" minGap="1.500" speedFactor="0.708" vClass="passenger"/>
        <vType accel="3.000" carFollowModel="Krauss" decel="5.000" guiShape="passenger" id="passenger41" length="4.907" minGap="1.500" speedFactor="0.858" vClass="passenger"/>
        <vType accel="3.000" carFollowModel="Krauss" decel="5.000" guiShape="passenger" id="passenger42" length="5.000" minGap="1.500" speedFactor="0.917" vClass="passenger"/>
        <vType accel="3.000" carFollowModel="Krauss" decel="5.000" guiShape="passenger" id="passenger43" length="5.078" minGap="1.500" speedFactor="1.068" vClass="passenger"/>
        <vType accel="3.000" carFollowModel="Krauss" decel="5.000" guiShape="passenger" id="passenger44" length="4.833" minGap="1.500" speedFactor="1.096" vClass="passenger"/>
        <vType accel="3.000" carFollowModel="Krauss" decel="5.000" guiShape="passenger" id="passenger45" length="4.542" minGap="1.500" speedFactor="0.881" vClass="passenger"/>
        <vType accel="3.000" carFollowModel="Krauss" decel="5.000" guiShape="passenger" id="passenger46" length="4.984" minGap="1.500" speedFactor="0.797" vClass="passenger"/>
        <vType accel="3.000" carFollowModel="Krauss" decel="5.000" guiShape="passenger" id="passenger47" length="4.629" minGap="1.500" speedFactor="0.851" vClass="passenger"/>
        <vType accel="3.000" carFollowModel="Krauss" decel="5.000" guiShape="passenger" id="passenger48" length="4.847" minGap="1.500" speedFactor="1.309" vClass="passenger"/>
        <vType accel="3.000" carFollowModel="Krauss" decel="5.000" guiShape="passenger" id="passenger49" length="5.055" minGap="1.500" speedFactor="0.759" vClass="passenger"/>
        <vType accel="3.000" carFollowModel="Krauss" decel="5.000" guiShape="passenger" id="passenger50" length="4.702" minGap="1.500" speedFactor="1.075" vClass="passenger"/>
        <vType accel="3.000" carFollowModel="Krauss" decel="5.000" guiShape="passenger" id="passenger51" length="4.963" minGap="1.500" speedFactor="0.967" vClass="passenger"/>
        <vType accel="3.000" carFollowModel="Krauss" decel="5.000" guiShape="passenger" id="passenger52" length="4.864" minGap="1.500" speedFactor="1.051" vClass="passenger"/>
        <vType accel="3.000" carFollowModel="Krauss" decel="5.000" guiShape="passenger" id="passenger53" length="5.085" minGap="1.500" speedFactor="0.980" vClass="passenger"/>
        <vType accel="3.000" carFollowModel="Krauss" decel="5.000" guiShape="passenger" id="passenger54" length="5.205" minGap="1.500" speedFactor="1.220" vClass="passenger"/>
        <vType accel="3.000" carFollowModel="Krauss" decel="5.000" guiShape="passenger" id="passenger55" length="4.762" minGap="1.500" speedFactor="1.139" vClass="passenger"/>
        <vType accel="3.000" carFollowModel="Krauss" decel="5.000" guiShape="passenger" id="passenger56" length="4.804" minGap="1.500" speedFactor="0.932" vClass="passenger"/>
        <vType accel="3.000" carFollowModel="Krauss" decel="5.000" guiShape="passenger" id="passenger57" length="5.045" minGap="1.500" speedFactor="1.088" vClass="passenger"/>
        <vType accel="3.000" carFollowModel="Krauss" decel="5.000" guiShape="passenger" id="passenger58" length="4.381" minGap="1.500" speedFactor="0.984" vClass="passenger"/>
        <vType accel="3.000" carFollowModel="Krauss" decel="5.000" guiShape="passenger" id="passenger59" length="5.031" minGap="1.500" speedFactor="0.652" vClass="passenger"/>
        <vType accel="3.000" carFollowModel="Krauss" decel="5.000" guiShape="passenger" id="passenger60" length="5.122" minGap="1.500" speedFactor="1.065" vClass="passenger"/>
        <vType accel="3.000" carFollowModel="Krauss" decel="5.000" guiShape="passenger" id="passenger61" length="5.116" minGap="1.500" speedFactor="0.810" vClass="passenger"/>
        <vType accel="3.000" carFollowModel="Krauss" decel="5.000" guiShape="passenger" id="passenger62" length="5.014" minGap="1.500" speedFactor="1.060" vClass="passenger"/>
        <vType accel="3.000" carFollowModel="Krauss" decel="5.000" guiShape="passenger" id="passenger63" length="4.807" minGap="1.500" speedFactor="0.769" vClass="passenger"/>
        <vType accel="3.000" carFollowModel="Krauss" decel="5.000" guiShape="passenger" id="passenger64" length="4.947" minGap="1.500" speedFactor="1.202" vClass="passenger"/>
        <vType accel="3.000" carFollowModel="Krauss" decel="5.000" guiShape="passenger" id="passenger65" length="4.850" minGap="1.500" speedFactor="1.067" vClass="passenger"/>
        <vType accel="3.000" carFollowModel="Krauss" decel="5.000" guiShape="passenger" id="passenger66" length="4.480" minGap="1.500" speedFactor="1.086" vClass="passenger"/>
        <vType accel="3.000" carFollowModel="Krauss" decel="5.000" guiShape="passenger" id="passenger67" length="4.789" minGap="1.500" speedFactor="0.962" vClass="passenger"/>
        <vType accel="3.000" carFollowModel="Krauss" decel="5.000" guiShape="passenger" id="passenger68" length="4.679" minGap="1.500" speedFactor="1.288" vClass="passenger"/>
        <vType accel="3.000" carFollowModel="Krauss" decel="5.000" guiShape="passenger" id="passenger69" length="4.749" minGap="1.500" speedFactor="0.954" vClass="passenger"/>
        <vType accel="3.000" carFollowModel="Krauss" decel="5.000" guiShape="passenger" id="passenger70" length="4.999" minGap="1.500" speedFactor="0.980" vClass="passenger"/>
        <vType accel="3.000" carFollowModel="Krauss" decel="5.000" guiShape="passenger" id="passenger71" length="4.807" minGap="1.500" speedFactor="1.098" vClass="passenger"/>
        <vType accel="3.000" carFollowModel="Krauss" decel="5.000" guiShape="passenger" id="passenger72" length="4.606" minGap="1.500" speedFactor="1.055" vClass="passenger"/>
        <vType accel="3.000" carFollowModel="Krauss" decel="5.000" guiShape="passenger" id="passenger73" length="5.339" minGap="1.500" speedFactor="1.061" vClass="passenger"/>
        <vType accel="3.000" carFollowModel="Krauss" decel="5.000" guiShape="passenger" id="passenger74" length="4.733" minGap="1.500" speedFactor="0.937" vClass="passenger"/>
        <vType accel="3.000" carFollowModel="Krauss" decel="5.000" guiShape="passenger" id="passenger75" length="4.555" minGap="1.500" speedFactor="0.998" vClass="passenger"/>
        <vType accel="3.000" carFollowModel="Krauss" decel="5.000" guiShape="passenger" id="passenger76" length="5.274" minGap="1.500" speedFactor="0.812" vClass="passenger"/>
        <vType accel="3.000" carFollowModel="Krauss" decel="5.000" guiShape="passenger" id="passenger77" length="4.906" minGap="1.500" speedFactor="0.940" vClass="passenger"/>
        <vType accel="3.000" carFollowModel="Krauss" decel="5.000" guiShape="passenger" id="passenger78" length="5.247" minGap="1.500" speedFactor="1.122" vClass="passenger"/>
        <vType accel="3.000" carFollowModel="Krauss" decel="5.000" guiShape="passenger" id="passenger79" length="5.151" minGap="1.500" speedFactor="0.991" vClass="passenger"/>
        <vType accel="3.000" carFollowModel="Krauss" decel="5.000" guiShape="passenger" id="passenger80" length="4.661" minGap="1.500" speedFactor="1.152" vClass="passenger"/>
        <vType accel="3.000" carFollowModel="Krauss" decel="5.000" guiShape="passenger" id="passenger81" length="4.960" minGap="1.500" speedFactor="0.838" vClass="passenger"/>
        <vType accel="3.000" carFollowModel="Krauss" decel="5.000" guiShape="passenger" id="passenger82" length="4.785" minGap="1.500" speedFactor="1.013" vClass="passenger"/>
        <vType accel="3.000" carFollowModel="Krauss" decel="5.000" guiShape="passenger" id="passenger83" length="4.599" minGap="1.500" speedFactor="1.061" vClass="passenger"/>
        <vType accel="3.000" carFollowModel="Krauss" decel="5.000" guiShape="passenger" id="passenger84" length="4.831" minGap="1.500" speedFactor="0.971" vClass="passenger"/>
        <vType accel="3.000" carFollowModel="Krauss" decel="5.000" guiShape="passenger" id="passenger85" length="4.612" minGap="1.500" speedFactor="1.076" vClass="passenger"/>
        <vType accel="3.000" carFollowModel="Krauss" decel="5.000" guiShape="passenger" id="passenger86" length="4.694" minGap="1.500" speedFactor="0.912" vClass="passenger"/>
        <vType accel="3.000" carFollowModel="Krauss" decel="5.000" guiShape="passenger" id="passenger87" length="4.940" minGap="1.500" speedFactor="0.902" vClass="passenger"/>
        <vType accel="3.000" carFollowModel="Krauss" decel="5.000" guiShape="passenger" id="passenger88" length="4.877" minGap="1.500" speedFactor="0.860" vClass="passenger"/>
        <vType accel="3.000" carFollowModel="Krauss" decel="5.000" guiShape="passenger" id="passenger89" length="4.861" minGap="1.500" speedFactor="0.990" vClass="passenger"/>
        <vType accel="3.000" carFollowModel="Krauss" decel="5.000" guiShape="passenger" id="passenger90" length="4.943" minGap="1.500" speedFactor="0.933" vClass="passenger"/>
        <vType accel="3.000" carFollowModel="Krauss" decel="5.000" guiShape="passenger" id="passenger91" length="4.668" minGap="1.500" speedFactor="0.801" vClass="passenger"/>
        <vType accel="3.000" carFollowModel="Krauss" decel="5.000" guiShape="passenger" id="passenger92" length="4.753" minGap="1.500" speedFactor="1.115" vClass="passenger"/>
        <vType accel="3.000" carFollowModel="Krauss" decel="5.000" guiShape="passenger" id="passenger93" length="5.414" minGap="1.500" speedFactor="0.926" vClass="passenger"/>
        <vType accel="3.000" carFollowModel="Krauss" decel="5.000" guiShape="passenger" id="passenger94" length="5.135" minGap="1.500" speedFactor="1.169" vClass="passenger"/>
        <vType accel="3.000" carFollowModel="Krauss" decel="5.000" guiShape="passenger" id="passenger95" length="4.512" minGap="1.500" speedFactor="1.022" vClass="passenger"/>
        <vType accel="3.000" carFollowModel="Krauss" decel="5.000" guiShape="passenger" id="passenger96" length="5.194" minGap="1.500" speedFactor="0.768" vClass="passenger"/>
        <vType accel="3.000" carFollowModel="Krauss" decel="5.000" guiShape="passenger" id="passenger97" length="4.996" minGap="1.500" speedFactor="0.840" vClass="passenger"/>
        <vType accel="3.000" carFollowModel="Krauss" decel="5.000" guiShape="passenger" id="passenger98" length="5.161" minGap="1.500" speedFactor="1.064" vClass="passenger"/>
        <vType accel="3.000" carFollowModel="Krauss" decel="5.000" guiShape="passenger" id="passenger99" length="5.075" minGap="1.500" speedFactor="1.241" vClass="passenger"/>
    </vTypeDistribution>
</additional>
