<?xml version="1.0" encoding="UTF-8"?>

<!-- generated on 2022-08-10 01:39:28 by Eclipse SUMO netedit Version 1.13.0
-->

<additional>
    <!-- StoppingPlaces -->
    <parkingArea id="pa_0" lane="E17_0" startPos="5.29" endPos="45.29" roadsideCapacity="8" width="4.00" length="12.00" angle="90.00"/>
    <parkingArea id="pa_1" lane="-6895_0" startPos="100.00" endPos="150.00" roadsideCapacity="10" width="4.00" length="12.00" angle="90.00"/>
    <parkingArea id="pa_2" lane="-E18_0" startPos="50.00" endPos="120.00" friendlyPos="true" roadsideCapacity="10" width="4.00" length="12.00" angle="90.00"/>
    <parkingArea id="pa_3" lane="-E19_0" startPos="2.00" endPos="42.00" roadsideCapacity="8" width="4.00" length="12.00" angle="90.00"/>
    <parkingArea id="pa_4" lane="-E20_0" startPos="2.00" endPos="32.00" roadsideCapacity="8" width="4.00" length="12.00" angle="90.00"/>
    <parkingArea id="pa_5" lane="-E21_0" startPos="0.00" endPos="30.00" roadsideCapacity="8" width="4.00" length="12.00" angle="90.00"/>
</additional>
