<routes>
	<trip id="Route4_trip175070020_04:21:00" line="Route4_EASTGATE_HAMILTON_PL_block401_trip175070020" type="Gillig_101" depart="15660.0" color="1,1,0" departPos="stop">
		<stop busStop="busStop_-9282_0_354" duration="30" until="15660.0" arrival="15630.0"/>
		<stop busStop="busStop_2007_0_505" duration="30" until="15878.0" arrival="15848.0"/>
		<stop busStop="busStop_-78835_0_784" duration="30" until="16043.0" arrival="16013.0"/>
		<stop busStop="busStop_9455_0_284" duration="30" until="16078.0" arrival="16048.0"/>
		<stop busStop="busStop_13630_0_285" duration="30" until="16123.0" arrival="16093.0"/>
		<stop busStop="busStop_-9383_0_286" duration="30" until="16157.0" arrival="16127.0"/>
		<stop busStop="busStop_-9385_0_287" duration="30" until="16173.0" arrival="16143.0"/>
		<stop busStop="busStop_-2074_0_1351" duration="30" until="16200.0" arrival="16170.0"/>
		<stop busStop="busStop_-1489_0_12" duration="30" until="16240.0" arrival="16210.0"/>
		<stop busStop="busStop_gneE48_0_1555" duration="30" until="16283.0" arrival="16253.0"/>
		<stop busStop="busStop_-1510_0_1579" duration="30" until="16295.0" arrival="16265.0"/>
		<stop busStop="busStop_-1524_0_1354" duration="30" until="16328.0" arrival="16298.0"/>
		<stop busStop="busStop_-1540_0_17" duration="30" until="16357.0" arrival="16327.0"/>
		<stop busStop="busStop_-17310_0_742" duration="30" until="16376.0" arrival="16346.0"/>
		<stop busStop="busStop_17637_0_806" duration="30" until="16610.0" arrival="16580.0"/>
		<stop busStop="busStop_2467_0_1475" duration="30" until="16672.0" arrival="16642.0"/>
		<stop busStop="busStop_-1535_0_1474" duration="30" until="16682.0" arrival="16652.0"/>
		<stop busStop="busStop_-16485_0_811" duration="30" until="16706.0" arrival="16676.0"/>
		<stop busStop="busStop_-16486_0_812" duration="30" until="16725.0" arrival="16695.0"/>
		<stop busStop="busStop_-17060_0_813" duration="30" until="16756.0" arrival="16726.0"/>
		<stop busStop="busStop_-16500_1_814" duration="30" until="16775.0" arrival="16745.0"/>
		<stop busStop="busStop_-16501_0_815" duration="30" until="16789.0" arrival="16759.0"/>
		<stop busStop="busStop_-16502_0_816" duration="30" until="16808.0" arrival="16778.0"/>
		<stop busStop="busStop_-16506_0_817" duration="30" until="16825.0" arrival="16795.0"/>
		<stop busStop="busStop_-16508_0_818" duration="30" until="16844.0" arrival="16814.0"/>
		<stop busStop="busStop_-16526_0_820" duration="30" until="16932.0" arrival="16902.0"/>
		<stop busStop="busStop_-16528_0_821" duration="30" until="16949.0" arrival="16919.0"/>
		<stop busStop="busStop_-17289_0_822" duration="30" until="16968.0" arrival="16938.0"/>
		<stop busStop="busStop_-16534_0_823" duration="30" until="16987.0" arrival="16957.0"/>
		<stop busStop="busStop_-17251_0_824" duration="30" until="17004.0" arrival="16974.0"/>
		<stop busStop="busStop_-16540_0_825" duration="30" until="17023.0" arrival="16993.0"/>
		<stop busStop="busStop_-16543_0_826" duration="30" until="17042.0" arrival="17012.0"/>
		<stop busStop="busStop_-16547_0_827" duration="30" until="17061.0" arrival="17031.0"/>
		<stop busStop="busStop_-16975_1_828" duration="30" until="17085.0" arrival="17055.0"/>
		<stop busStop="busStop_-16974_1_829" duration="30" until="17100.0" arrival="17070.0"/>
		<stop busStop="busStop_-16561_0_321" duration="30" until="17116.0" arrival="17086.0"/>
		<stop busStop="busStop_-16565_0_322" duration="30" until="17134.0" arrival="17104.0"/>
		<stop busStop="busStop_-16571_0_830" duration="30" until="17148.0" arrival="17118.0"/>
		<stop busStop="busStop_16570_1_831" duration="30" until="17169.0" arrival="17139.0"/>
		<stop busStop="busStop_16932_0_832" duration="30" until="17183.0" arrival="17153.0"/>
		<stop busStop="busStop_-16160_0_833" duration="30" until="17232.0" arrival="17202.0"/>
		<stop busStop="busStop_-16599_0_835" duration="30" until="17314.0" arrival="17284.0"/>
		<stop busStop="busStop_-16609_0_836" duration="30" until="17338.0" arrival="17308.0"/>
		<stop busStop="busStop_-16615_0_837" duration="30" until="17363.0" arrival="17333.0"/>
		<stop busStop="busStop_-16634_0_838" duration="30" until="17377.0" arrival="17347.0"/>
		<stop busStop="busStop_-16641_0_839" duration="30" until="17400.0" arrival="17370.0"/>
		<stop busStop="busStop_-16641_0_840" duration="30" until="17417.0" arrival="17387.0"/>
		<stop busStop="busStop_-38555_0_841" duration="30" until="17434.0" arrival="17404.0"/>
		<stop busStop="busStop_-16694_0_844" duration="30" until="17483.0" arrival="17453.0"/>
		<stop busStop="busStop_-16710_0_845" duration="30" until="17508.0" arrival="17478.0"/>
		<stop busStop="busStop_-16736_0_848" duration="30" until="17545.0" arrival="17515.0"/>
		<stop busStop="busStop_-16743_0_849" duration="30" until="17554.0" arrival="17524.0"/>
		<stop busStop="busStop_-16743_0_850" duration="30" until="17568.0" arrival="17538.0"/>
		<stop busStop="busStop_-16749_0_851" duration="30" until="17583.0" arrival="17553.0"/>
		<stop busStop="busStop_-17101_0_852" duration="30" until="17599.0" arrival="17569.0"/>
		<stop busStop="busStop_-17147_0_854" duration="30" until="17643.0" arrival="17613.0"/>
		<stop busStop="busStop_-16766_0_856" duration="30" until="17669.0" arrival="17639.0"/>
		<stop busStop="busStop_-16770_0_857" duration="30" until="17688.0" arrival="17658.0"/>
		<stop busStop="busStop_-16772_0_858" duration="30" until="17698.0" arrival="17668.0"/>
		<stop busStop="busStop_-16774_0_859" duration="30" until="17707.0" arrival="17677.0"/>
		<stop busStop="busStop_16777_0_860" duration="30" until="17732.0" arrival="17702.0"/>
		<stop busStop="busStop_-16777_0_861" duration="30" until="17742.0" arrival="17712.0"/>
		<stop busStop="busStop_16980_2_1873" duration="30" until="17771.0" arrival="17741.0"/>
		<stop busStop="busStop_-31946_0_1849" duration="30" until="17820.0" arrival="17790.0"/>
		<stop busStop="busStop_-27462_0_1850" duration="30" until="17837.0" arrival="17807.0"/>
		<stop busStop="busStop_-31994_0_1819" duration="30" until="17858.0" arrival="17828.0"/>
		<stop busStop="busStop_30426_0_867" duration="30" until="17984.0" arrival="17954.0"/>
		<stop busStop="busStop_30431_0_868" duration="30" until="18000.0" arrival="17970.0"/>
		<stop busStop="busStop_32225_0_869" duration="30" until="18088.0" arrival="18058.0"/>
		<stop busStop="busStop_17341_2_870" duration="30" until="18146.0" arrival="18116.0"/>
		<stop busStop="busStop_16934_2_871" duration="30" until="18177.0" arrival="18147.0"/>
		<stop busStop="busStop_16705_0_872" duration="30" until="18215.0" arrival="18185.0"/>
		<stop busStop="busStop_16664_0_874" duration="30" until="18358.0" arrival="18328.0"/>
		<stop busStop="busStop_16591_0_879" duration="30" until="18585.0" arrival="18555.0"/>
		<stop busStop="busStop_38559_0_880" duration="30" until="18628.0" arrival="18598.0"/>
		<stop busStop="busStop_16568_0_881" duration="30" until="18666.0" arrival="18636.0"/>
		<stop busStop="busStop_17307_0_884" duration="30" until="18898.0" arrival="18868.0"/>
		<stop busStop="busStop_17308_0_885" duration="30" until="18963.0" arrival="18933.0"/>
		<stop busStop="busStop_16497_1_886" duration="30" until="19005.0" arrival="18975.0"/>
		<stop busStop="busStop_16489_0_887" duration="30" until="19052.0" arrival="19022.0"/>
		<stop busStop="busStop_1521_0_891" duration="30" until="19164.0" arrival="19134.0"/>
		<stop busStop="busStop_-1517_0_1875" duration="30" until="19206.0" arrival="19176.0"/>
		<stop busStop="busStop_-1527_1_894" duration="30" until="19237.0" arrival="19207.0"/>
		<stop busStop="busStop_-16951_1_1485" duration="30" until="19271.0" arrival="19241.0"/>
		<stop busStop="busStop_-31312_0_897" duration="30" until="19360.0" arrival="19330.0"/>
		<stop busStop="busStop_-31315_0_898" duration="30" until="19387.0" arrival="19357.0"/>
		<stop busStop="busStop_30289_0_1876" duration="30" until="19800.0" arrival="19770.0"/>
	</trip>
	<trip id="Route4_trip175111020_04:26:00" line="Route4_EASTGATE_HAMILTON_PL_block402_trip175111020" type="Gillig_104" depart="15960.0" color="1,1,0" departPos="stop">
		<stop busStop="busStop_-9282_0_354" duration="30" until="15960.0" arrival="15930.0"/>
		<stop busStop="busStop_-1513_0_892" duration="30" until="17936.0" arrival="17906.0"/>
		<stop busStop="busStop_-1517_0_1875" duration="30" until="17956.0" arrival="17926.0"/>
		<stop busStop="busStop_-1527_1_894" duration="30" until="17973.0" arrival="17943.0"/>
		<stop busStop="busStop_-31312_0_897" duration="30" until="18048.0" arrival="18018.0"/>
		<stop busStop="busStop_-31315_0_898" duration="30" until="18063.0" arrival="18033.0"/>
		<stop busStop="busStop_-30289_0_1877" duration="30" until="18300.0" arrival="18270.0"/>
	</trip>
	<trip id="Route3_trip179386020_04:36:00" line="Route3_ENTERPRISE_SOUTH_block302_trip179386020" type="Gillig_104" depart="16560.0" color="1,1,0" departPos="stop">
		<stop busStop="busStop_9455_0_284" duration="30" until="16990.0" arrival="16960.0"/>
		<stop busStop="busStop_13630_0_285" duration="30" until="17027.0" arrival="16997.0"/>
		<stop busStop="busStop_-9383_0_286" duration="30" until="17056.0" arrival="17026.0"/>
		<stop busStop="busStop_-9385_0_287" duration="30" until="17070.0" arrival="17040.0"/>
		<stop busStop="busStop_-2074_0_1351" duration="30" until="17100.0" arrival="17070.0"/>
		<stop busStop="busStop_1489_0_166" duration="30" until="17121.0" arrival="17091.0"/>
		<stop busStop="busStop_-1510_0_2176" duration="30" until="17152.0" arrival="17122.0"/>
		<stop busStop="busStop_-1524_0_2068" duration="30" until="17166.0" arrival="17136.0"/>
		<stop busStop="busStop_-1541_0_493" duration="30" until="17207.0" arrival="17177.0"/>
		<stop busStop="busStop_66_0_503" duration="30" until="17376.0" arrival="17346.0"/>
		<stop busStop="busStop_-600_0_169" duration="30" until="17386.0" arrival="17356.0"/>
		<stop busStop="busStop_327_0_170" duration="30" until="17398.0" arrival="17368.0"/>
		<stop busStop="busStop_-2716_0_171" duration="30" until="17427.0" arrival="17397.0"/>
		<stop busStop="busStop_-1481_0_173" duration="30" until="17502.0" arrival="17472.0"/>
		<stop busStop="busStop_2007_0_1922" duration="30" until="17680.0" arrival="17650.0"/>
		<stop busStop="busStop_2083_0_507" duration="30" until="18114.0" arrival="18084.0"/>
		<stop busStop="busStop_2210_0_1755" duration="30" until="19200.0" arrival="19170.0"/>
		<stop busStop="busStop_-2772_0_1925" duration="30" until="19500.0" arrival="19470.0"/>
	</trip>
	<trip id="Route7_trip175417020_04:41:00" line="Route7_DOWNTOWN_block101_trip175417020" type="Gillig_101" depart="16860.0" color="1,1,0" departPos="stop">
		<stop busStop="busStop_-9282_0_354" duration="30" until="16860.0" arrival="16830.0"/>
		<stop busStop="busStop_-1692_0_355" duration="30" until="16869.0" arrival="16839.0"/>
		<stop busStop="busStop_-1692_0_356" duration="30" until="16876.0" arrival="16846.0"/>
		<stop busStop="busStop_-1604_0_358" duration="30" until="16920.0" arrival="16890.0"/>
		<stop busStop="busStop_-1515_1_359" duration="30" until="16972.0" arrival="16942.0"/>
		<stop busStop="busStop_-1539_0_712" duration="30" until="17014.0" arrival="16984.0"/>
		<stop busStop="busStop_1979_0_273" duration="30" until="17033.0" arrival="17003.0"/>
		<stop busStop="busStop_2220_0_274" duration="30" until="17106.0" arrival="17076.0"/>
		<stop busStop="busStop_1519_0_275" duration="30" until="17128.0" arrival="17098.0"/>
		<stop busStop="busStop_1514_0_276" duration="30" until="17158.0" arrival="17128.0"/>
		<stop busStop="busStop_1507_0_277" duration="30" until="17195.0" arrival="17165.0"/>
		<stop busStop="busStop_1502_0_278" duration="30" until="17219.0" arrival="17189.0"/>
		<stop busStop="busStop_1496_1_279" duration="30" until="17244.0" arrival="17214.0"/>
		<stop busStop="busStop_2004_0_280" duration="30" until="17287.0" arrival="17257.0"/>
		<stop busStop="busStop_1488_0_281" duration="30" until="17314.0" arrival="17284.0"/>
		<stop busStop="busStop_2542_0_282" duration="30" until="17412.0" arrival="17382.0"/>
		<stop busStop="busStop_9455_0_284" duration="30" until="17519.0" arrival="17489.0"/>
		<stop busStop="busStop_13630_0_285" duration="30" until="17592.0" arrival="17562.0"/>
		<stop busStop="busStop_-9383_0_286" duration="30" until="17648.0" arrival="17618.0"/>
		<stop busStop="busStop_-2074_0_1351" duration="30" until="17700.0" arrival="17670.0"/>
	</trip>
	<trip id="Route10A_trip173979020_04:51:00" line="Route10A_DOWNTOWN_block405_trip173979020" type="Gillig_105" depart="17460.0" color="1,1,0" departPos="stop">
		<stop busStop="busStop_9217_0_1870" duration="30" until="17460.0" arrival="17430.0"/>
		<stop busStop="busStop_8988_0_211" duration="30" until="17795.0" arrival="17765.0"/>
		<stop busStop="busStop_8962_0_212" duration="30" until="17840.0" arrival="17810.0"/>
		<stop busStop="busStop_7174_0_215" duration="30" until="17930.0" arrival="17900.0"/>
		<stop busStop="busStop_7099_0_216" duration="30" until="17963.0" arrival="17933.0"/>
		<stop busStop="busStop_-11176_0_217" duration="30" until="18000.0" arrival="17970.0"/>
		<stop busStop="busStop_-7049_0_233" duration="30" until="18056.0" arrival="18026.0"/>
		<stop busStop="busStop_-7099_0_234" duration="30" until="18085.0" arrival="18055.0"/>
		<stop busStop="busStop_-7255_0_236" duration="30" until="18149.0" arrival="18119.0"/>
		<stop busStop="busStop_-8835_0_237" duration="30" until="18181.0" arrival="18151.0"/>
		<stop busStop="busStop_-8962_0_238" duration="30" until="18224.0" arrival="18194.0"/>
		<stop busStop="busStop_-9211_0_253" duration="30" until="18429.0" arrival="18399.0"/>
		<stop busStop="busStop_-14311_0_254" duration="30" until="18462.0" arrival="18432.0"/>
		<stop busStop="busStop_-9285_0_255" duration="30" until="18491.0" arrival="18461.0"/>
		<stop busStop="busStop_-14183_0_256" duration="30" until="18544.0" arrival="18514.0"/>
		<stop busStop="busStop_-9425_0_257" duration="30" until="18590.0" arrival="18560.0"/>
		<stop busStop="busStop_-9465_0_258" duration="30" until="18611.0" arrival="18581.0"/>
		<stop busStop="busStop_-9486_0_259" duration="30" until="18632.0" arrival="18602.0"/>
		<stop busStop="busStop_-9528_0_260" duration="30" until="18656.0" arrival="18626.0"/>
		<stop busStop="busStop_-9589_0_261" duration="30" until="18675.0" arrival="18645.0"/>
		<stop busStop="busStop_-9589_0_262" duration="30" until="18694.0" arrival="18664.0"/>
		<stop busStop="busStop_-9666_0_263" duration="30" until="18731.0" arrival="18701.0"/>
		<stop busStop="busStop_-9748_0_264" duration="30" until="18763.0" arrival="18733.0"/>
		<stop busStop="busStop_-24816_0_266" duration="30" until="18833.0" arrival="18803.0"/>
		<stop busStop="busStop_-31688_0_1584" duration="30" until="18854.0" arrival="18824.0"/>
		<stop busStop="busStop_-25008_0_1583" duration="30" until="18900.0" arrival="18870.0"/>
		<stop busStop="busStop_17076_1_269" duration="30" until="18943.0" arrival="18913.0"/>
		<stop busStop="busStop_16492_0_270" duration="30" until="19012.0" arrival="18982.0"/>
		<stop busStop="busStop_17077_0_271" duration="30" until="19056.0" arrival="19026.0"/>
		<stop busStop="busStop_17078_1_272" duration="30" until="19084.0" arrival="19054.0"/>
		<stop busStop="busStop_1979_0_273" duration="30" until="19106.0" arrival="19076.0"/>
		<stop busStop="busStop_2220_0_274" duration="30" until="19181.0" arrival="19151.0"/>
		<stop busStop="busStop_1519_0_275" duration="30" until="19203.0" arrival="19173.0"/>
		<stop busStop="busStop_1514_0_276" duration="30" until="19234.0" arrival="19204.0"/>
		<stop busStop="busStop_1507_0_277" duration="30" until="19271.0" arrival="19241.0"/>
		<stop busStop="busStop_1502_0_278" duration="30" until="19296.0" arrival="19266.0"/>
		<stop busStop="busStop_1496_1_279" duration="30" until="19321.0" arrival="19291.0"/>
		<stop busStop="busStop_2004_0_280" duration="30" until="19365.0" arrival="19335.0"/>
		<stop busStop="busStop_1488_0_281" duration="30" until="19393.0" arrival="19363.0"/>
		<stop busStop="busStop_2542_0_282" duration="30" until="19493.0" arrival="19463.0"/>
		<stop busStop="busStop_9455_0_284" duration="30" until="19603.0" arrival="19573.0"/>
		<stop busStop="busStop_13630_0_285" duration="30" until="19678.0" arrival="19648.0"/>
		<stop busStop="busStop_-9383_0_286" duration="30" until="19728.0" arrival="19698.0"/>
		<stop busStop="busStop_-9385_0_287" duration="30" until="19756.0" arrival="19726.0"/>
		<stop busStop="busStop_-2074_0_1351" duration="30" until="19800.0" arrival="19770.0"/>
	</trip>
	<trip id="Route13_trip174162020_04:51:00" line="Route13_ROSSVILLE_block1301_trip174162020" type="Gillig_101" depart="17460.0" color="1,1,0" departPos="stop">
		<stop busStop="busStop_-9282_0_354" duration="30" until="17460.0" arrival="17430.0"/>
		<stop busStop="busStop_2007_0_505" duration="30" until="17655.0" arrival="17625.0"/>
		<stop busStop="busStop_-78835_0_784" duration="30" until="17801.0" arrival="17771.0"/>
		<stop busStop="busStop_9455_0_284" duration="30" until="17833.0" arrival="17803.0"/>
		<stop busStop="busStop_13630_0_285" duration="30" until="17873.0" arrival="17843.0"/>
		<stop busStop="busStop_-9383_0_286" duration="30" until="17903.0" arrival="17873.0"/>
		<stop busStop="busStop_-9385_0_287" duration="30" until="17918.0" arrival="17888.0"/>
		<stop busStop="busStop_-2074_0_1351" duration="30" until="17941.0" arrival="17911.0"/>
		<stop busStop="busStop_-1489_0_12" duration="30" until="17970.0" arrival="17940.0"/>
		<stop busStop="busStop_gneE48_0_1555" duration="30" until="18000.0" arrival="17970.0"/>
		<stop busStop="busStop_-1510_0_1579" duration="30" until="18015.0" arrival="17985.0"/>
		<stop busStop="busStop_-1524_0_1354" duration="30" until="18060.0" arrival="18030.0"/>
		<stop busStop="busStop_30078_0_1194" duration="30" until="18110.0" arrival="18080.0"/>
		<stop busStop="busStop_-31884_0_1195" duration="30" until="18129.0" arrival="18099.0"/>
		<stop busStop="busStop_-24876_0_1197" duration="30" until="18152.0" arrival="18122.0"/>
		<stop busStop="busStop_-24907_0_1198" duration="30" until="18167.0" arrival="18137.0"/>
		<stop busStop="busStop_-24929_0_1199" duration="30" until="18183.0" arrival="18153.0"/>
		<stop busStop="busStop_-24956_0_1200" duration="30" until="18199.0" arrival="18169.0"/>
		<stop busStop="busStop_-30076_0_1201" duration="30" until="18247.0" arrival="18217.0"/>
		<stop busStop="busStop_-25098_0_1202" duration="30" until="18278.0" arrival="18248.0"/>
		<stop busStop="busStop_-25145_0_1203" duration="30" until="18307.0" arrival="18277.0"/>
		<stop busStop="busStop_-25193_0_1204" duration="30" until="18332.0" arrival="18302.0"/>
		<stop busStop="busStop_-25239_0_1205" duration="30" until="18358.0" arrival="18328.0"/>
		<stop busStop="busStop_-29830_0_1207" duration="30" until="18440.0" arrival="18410.0"/>
		<stop busStop="busStop_-25666_0_1397" duration="30" until="18481.0" arrival="18451.0"/>
		<stop busStop="busStop_-25743_0_1209" duration="30" until="18503.0" arrival="18473.0"/>
		<stop busStop="busStop_-25819_0_1210" duration="30" until="18522.0" arrival="18492.0"/>
		<stop busStop="busStop_-31769_0_1211" duration="30" until="18576.0" arrival="18546.0"/>
		<stop busStop="busStop_-16639_0_1592" duration="30" until="18646.0" arrival="18616.0"/>
		<stop busStop="busStop_-16942_0_1214" duration="30" until="18681.0" arrival="18651.0"/>
		<stop busStop="busStop_-16651_0_1215" duration="30" until="18703.0" arrival="18673.0"/>
		<stop busStop="busStop_-16655_0_1216" duration="30" until="18725.0" arrival="18695.0"/>
		<stop busStop="busStop_-16944_0_1217" duration="30" until="18738.0" arrival="18708.0"/>
		<stop busStop="busStop_-16663_0_1218" duration="30" until="18773.0" arrival="18743.0"/>
		<stop busStop="busStop_-16672_0_1219" duration="30" until="18795.0" arrival="18765.0"/>
		<stop busStop="busStop_-16676_0_1220" duration="30" until="18820.0" arrival="18790.0"/>
		<stop busStop="busStop_-16686_0_1221" duration="30" until="18855.0" arrival="18825.0"/>
		<stop busStop="busStop_-16707_0_1399" duration="30" until="18893.0" arrival="18863.0"/>
		<stop busStop="busStop_-16711_0_1224" duration="30" until="18941.0" arrival="18911.0"/>
		<stop busStop="busStop_-26954_0_1225" duration="30" until="18985.0" arrival="18955.0"/>
		<stop busStop="busStop_-27027_0_1115" duration="30" until="19007.0" arrival="18977.0"/>
		<stop busStop="busStop_-29904_0_1116" duration="30" until="19023.0" arrival="18993.0"/>
		<stop busStop="busStop_-29905_0_1226" duration="30" until="19071.0" arrival="19041.0"/>
		<stop busStop="busStop_-27323_0_1227" duration="30" until="19105.0" arrival="19075.0"/>
		<stop busStop="busStop_-27373_0_1228" duration="30" until="19125.0" arrival="19095.0"/>
		<stop busStop="busStop_-27423_0_1229" duration="30" until="19140.0" arrival="19110.0"/>
		<stop busStop="busStop_27513_0_1230" duration="30" until="19178.0" arrival="19148.0"/>
		<stop busStop="busStop_-27551_0_1231" duration="30" until="19197.0" arrival="19167.0"/>
		<stop busStop="busStop_-27586_0_1232" duration="30" until="19216.0" arrival="19186.0"/>
		<stop busStop="busStop_-29029_0_1233" duration="30" until="19242.0" arrival="19212.0"/>
		<stop busStop="busStop_-29093_0_1234" duration="30" until="19267.0" arrival="19237.0"/>
		<stop busStop="busStop_-29110_0_1748" duration="30" until="19305.0" arrival="19275.0"/>
		<stop busStop="busStop_-29175_0_1749" duration="30" until="19362.0" arrival="19332.0"/>
		<stop busStop="busStop_29176_0_1750" duration="30" until="19394.0" arrival="19364.0"/>
		<stop busStop="busStop_-29161_0_1236" duration="30" until="19432.0" arrival="19402.0"/>
		<stop busStop="busStop_29144_0_1237" duration="30" until="19451.0" arrival="19421.0"/>
		<stop busStop="busStop_-16888_0_1238" duration="30" until="19492.0" arrival="19462.0"/>
		<stop busStop="busStop_-16889_0_1239" duration="30" until="19514.0" arrival="19484.0"/>
		<stop busStop="busStop_-16891_0_1240" duration="30" until="19536.0" arrival="19506.0"/>
		<stop busStop="busStop_-16895_0_1241" duration="30" until="19559.0" arrival="19529.0"/>
		<stop busStop="busStop_-16898_0_1242" duration="30" until="19584.0" arrival="19554.0"/>
		<stop busStop="busStop_-16930_0_1243" duration="30" until="19619.0" arrival="19589.0"/>
		<stop busStop="busStop_-16908_0_1244" duration="30" until="19651.0" arrival="19621.0"/>
		<stop busStop="busStop_-17209_0_1245" duration="30" until="19679.0" arrival="19649.0"/>
		<stop busStop="busStop_-16915_0_1246" duration="30" until="19720.0" arrival="19690.0"/>
		<stop busStop="busStop_-17814_0_1136" duration="30" until="19742.0" arrival="19712.0"/>
		<stop busStop="busStop_-29743_0_1247" duration="30" until="19761.0" arrival="19731.0"/>
		<stop busStop="busStop_-22994_0_1710" duration="30" until="19800.0" arrival="19770.0"/>
	</trip>
	<trip id="Route4_trip175054020_04:51:00" line="Route4_EASTGATE_HAMILTON_PL_block403_trip175054020" type="Gillig_103" depart="17460.0" color="1,1,0" departPos="stop">
		<stop busStop="busStop_-9282_0_354" duration="30" until="17460.0" arrival="17430.0"/>
		<stop busStop="busStop_2007_0_505" duration="30" until="17678.0" arrival="17648.0"/>
		<stop busStop="busStop_-78835_0_784" duration="30" until="17843.0" arrival="17813.0"/>
		<stop busStop="busStop_9455_0_284" duration="30" until="17878.0" arrival="17848.0"/>
		<stop busStop="busStop_13630_0_285" duration="30" until="17923.0" arrival="17893.0"/>
		<stop busStop="busStop_-9383_0_286" duration="30" until="17957.0" arrival="17927.0"/>
		<stop busStop="busStop_-9385_0_287" duration="30" until="17973.0" arrival="17943.0"/>
		<stop busStop="busStop_-2074_0_1351" duration="30" until="18000.0" arrival="17970.0"/>
		<stop busStop="busStop_-1489_0_12" duration="30" until="18040.0" arrival="18010.0"/>
		<stop busStop="busStop_gneE48_0_1555" duration="30" until="18083.0" arrival="18053.0"/>
		<stop busStop="busStop_-1510_0_1579" duration="30" until="18095.0" arrival="18065.0"/>
		<stop busStop="busStop_-1524_0_1354" duration="30" until="18128.0" arrival="18098.0"/>
		<stop busStop="busStop_-1540_0_17" duration="30" until="18157.0" arrival="18127.0"/>
		<stop busStop="busStop_-17310_0_742" duration="30" until="18176.0" arrival="18146.0"/>
		<stop busStop="busStop_17637_0_806" duration="30" until="18410.0" arrival="18380.0"/>
		<stop busStop="busStop_2467_0_1475" duration="30" until="18472.0" arrival="18442.0"/>
		<stop busStop="busStop_-1535_0_1474" duration="30" until="18482.0" arrival="18452.0"/>
		<stop busStop="busStop_-16485_0_811" duration="30" until="18506.0" arrival="18476.0"/>
		<stop busStop="busStop_-16486_0_812" duration="30" until="18525.0" arrival="18495.0"/>
		<stop busStop="busStop_-17060_0_813" duration="30" until="18556.0" arrival="18526.0"/>
		<stop busStop="busStop_-16500_1_814" duration="30" until="18575.0" arrival="18545.0"/>
		<stop busStop="busStop_-16501_0_815" duration="30" until="18589.0" arrival="18559.0"/>
		<stop busStop="busStop_-16502_0_816" duration="30" until="18608.0" arrival="18578.0"/>
		<stop busStop="busStop_-16506_0_817" duration="30" until="18625.0" arrival="18595.0"/>
		<stop busStop="busStop_-16508_0_818" duration="30" until="18644.0" arrival="18614.0"/>
		<stop busStop="busStop_-16526_0_820" duration="30" until="18732.0" arrival="18702.0"/>
		<stop busStop="busStop_-16528_0_821" duration="30" until="18749.0" arrival="18719.0"/>
		<stop busStop="busStop_-17289_0_822" duration="30" until="18768.0" arrival="18738.0"/>
		<stop busStop="busStop_-16534_0_823" duration="30" until="18787.0" arrival="18757.0"/>
		<stop busStop="busStop_-17251_0_824" duration="30" until="18804.0" arrival="18774.0"/>
		<stop busStop="busStop_-16540_0_825" duration="30" until="18823.0" arrival="18793.0"/>
		<stop busStop="busStop_-16543_0_826" duration="30" until="18842.0" arrival="18812.0"/>
		<stop busStop="busStop_-16547_0_827" duration="30" until="18861.0" arrival="18831.0"/>
		<stop busStop="busStop_-16975_1_828" duration="30" until="18885.0" arrival="18855.0"/>
		<stop busStop="busStop_-16974_1_829" duration="30" until="18900.0" arrival="18870.0"/>
		<stop busStop="busStop_-16561_0_321" duration="30" until="18916.0" arrival="18886.0"/>
		<stop busStop="busStop_-16565_0_322" duration="30" until="18934.0" arrival="18904.0"/>
		<stop busStop="busStop_-16571_0_830" duration="30" until="18948.0" arrival="18918.0"/>
		<stop busStop="busStop_16570_1_831" duration="30" until="18969.0" arrival="18939.0"/>
		<stop busStop="busStop_16932_0_832" duration="30" until="18983.0" arrival="18953.0"/>
		<stop busStop="busStop_-16160_0_833" duration="30" until="19032.0" arrival="19002.0"/>
		<stop busStop="busStop_-16599_0_835" duration="30" until="19114.0" arrival="19084.0"/>
		<stop busStop="busStop_-16609_0_836" duration="30" until="19138.0" arrival="19108.0"/>
		<stop busStop="busStop_-16615_0_837" duration="30" until="19163.0" arrival="19133.0"/>
		<stop busStop="busStop_-16634_0_838" duration="30" until="19177.0" arrival="19147.0"/>
		<stop busStop="busStop_-16641_0_839" duration="30" until="19200.0" arrival="19170.0"/>
		<stop busStop="busStop_-16641_0_840" duration="30" until="19217.0" arrival="19187.0"/>
		<stop busStop="busStop_-38555_0_841" duration="30" until="19234.0" arrival="19204.0"/>
		<stop busStop="busStop_-16694_0_844" duration="30" until="19283.0" arrival="19253.0"/>
		<stop busStop="busStop_-16710_0_845" duration="30" until="19308.0" arrival="19278.0"/>
		<stop busStop="busStop_-16736_0_848" duration="30" until="19345.0" arrival="19315.0"/>
		<stop busStop="busStop_-16743_0_849" duration="30" until="19354.0" arrival="19324.0"/>
		<stop busStop="busStop_-16743_0_850" duration="30" until="19368.0" arrival="19338.0"/>
		<stop busStop="busStop_-16749_0_851" duration="30" until="19383.0" arrival="19353.0"/>
		<stop busStop="busStop_-17101_0_852" duration="30" until="19399.0" arrival="19369.0"/>
		<stop busStop="busStop_-17147_0_854" duration="30" until="19443.0" arrival="19413.0"/>
		<stop busStop="busStop_-16766_0_856" duration="30" until="19469.0" arrival="19439.0"/>
		<stop busStop="busStop_-16770_0_857" duration="30" until="19488.0" arrival="19458.0"/>
		<stop busStop="busStop_-16772_0_858" duration="30" until="19498.0" arrival="19468.0"/>
		<stop busStop="busStop_-16774_0_859" duration="30" until="19507.0" arrival="19477.0"/>
		<stop busStop="busStop_16777_0_860" duration="30" until="19532.0" arrival="19502.0"/>
		<stop busStop="busStop_-16777_0_861" duration="30" until="19542.0" arrival="19512.0"/>
		<stop busStop="busStop_16980_2_1873" duration="30" until="19571.0" arrival="19541.0"/>
		<stop busStop="busStop_-31946_0_1849" duration="30" until="19620.0" arrival="19590.0"/>
		<stop busStop="busStop_-27462_0_1850" duration="30" until="19637.0" arrival="19607.0"/>
		<stop busStop="busStop_-31994_0_1819" duration="30" until="19658.0" arrival="19628.0"/>
		<stop busStop="busStop_30426_0_867" duration="30" until="19784.0" arrival="19754.0"/>
		<stop busStop="busStop_30431_0_868" duration="30" until="19800.0" arrival="19770.0"/>
		<stop busStop="busStop_32225_0_869" duration="30" until="19888.0" arrival="19858.0"/>
		<stop busStop="busStop_17341_2_870" duration="30" until="19946.0" arrival="19916.0"/>
		<stop busStop="busStop_16934_2_871" duration="30" until="19977.0" arrival="19947.0"/>
		<stop busStop="busStop_16705_0_872" duration="30" until="20015.0" arrival="19985.0"/>
		<stop busStop="busStop_16664_0_874" duration="30" until="20158.0" arrival="20128.0"/>
		<stop busStop="busStop_16591_0_879" duration="30" until="20385.0" arrival="20355.0"/>
		<stop busStop="busStop_38559_0_880" duration="30" until="20428.0" arrival="20398.0"/>
		<stop busStop="busStop_16568_0_881" duration="30" until="20466.0" arrival="20436.0"/>
		<stop busStop="busStop_17307_0_884" duration="30" until="20698.0" arrival="20668.0"/>
		<stop busStop="busStop_17308_0_885" duration="30" until="20763.0" arrival="20733.0"/>
		<stop busStop="busStop_16497_1_886" duration="30" until="20805.0" arrival="20775.0"/>