<additional xmlns:xsi="http://www.w3.org/2001/XMLSchema-instance" xsi:noNamespaceSchemaLocation="http://sumo.dlr.de/xsd/additional_file.xsd">
    <vTypeDistribution id="passenger">
        <vType accel="3.000" carFollowModel="Krauss" decel="5.000" guiShape="passenger" id="passenger0" length="4.949" minGap="1.500" sigma="0.455" speedFactor="normc(1,0.17,0.2,2)" tau="1.700" vClass="passenger"/>
        <vType accel="3.000" carFollowModel="Krauss" decel="5.000" guiShape="passenger" id="passenger1" length="4.540" minGap="1.500" sigma="0.535" speedFactor="normc(1,0.17,0.2,2)" tau="1.700" vClass="passenger"/>
        <vType accel="3.000" carFollowModel="Krauss" decel="5.000" guiShape="passenger" id="passenger2" length="4.872" minGap="1.500" sigma="0.444" speedFactor="normc(1,0.17,0.2,2)" tau="1.700" vClass="passenger"/>
        <vType accel="3.000" carFollowModel="Krauss" decel="5.000" guiShape="passenger" id="passenger3" length="4.902" minGap="1.500" sigma="0.440" speedFactor="normc(1,0.17,0.2,2)" tau="1.700" vClass="passenger"/>
        <vType accel="3.000" carFollowModel="Krauss" decel="5.000" guiShape="passenger" id="passenger4" length="5.013" minGap="1.500" sigma="0.444" speedFactor="normc(1,0.17,0.2,2)" tau="1.700" vClass="passenger"/>
        <vType accel="3.000" carFollowModel="Krauss" decel="5.000" guiShape="passenger" id="passenger5" length="5.061" minGap="1.500" sigma="0.401" speedFactor="normc(1,0.17,0.2,2)" tau="1.700" vClass="passenger"/>
        <vType accel="3.000" carFollowModel="Krauss" decel="5.000" guiShape="passenger" id="passenger6" length="5.248" minGap="1.500" sigma="0.468" speedFactor="normc(1,0.17,0.2,2)" tau="1.700" vClass="passenger"/>
        <vType accel="3.000" carFollowModel="Krauss" decel="5.000" guiShape="passenger" id="passenger7" length="4.838" minGap="1.500" sigma="0.419" speedFactor="normc(1,0.17,0.2,2)" tau="1.700" vClass="passenger"/>
        <vType accel="3.000" carFollowModel="Krauss" decel="5.000" guiShape="passenger" id="passenger8" length="5.201" minGap="1.500" sigma="0.561" speedFactor="normc(1,0.17,0.2,2)" tau="1.700" vClass="passenger"/>
        <vType accel="3.000" carFollowModel="Krauss" decel="5.000" guiShape="passenger" id="passenger9" length="5.070" minGap="1.500" sigma="0.595" speedFactor="normc(1,0.17,0.2,2)" tau="1.700" vClass="passenger"/>
        <vType accel="3.000" carFollowModel="Krauss" decel="5.000" guiShape="passenger" id="passenger10" length="4.807" minGap="1.500" sigma="0.566" speedFactor="normc(1,0.17,0.2,2)" tau="1.700" vClass="passenger"/>
        <vType accel="3.000" carFollowModel="Krauss" decel="5.000" guiShape="passenger" id="passenger11" length="5.194" minGap="1.500" sigma="0.515" speedFactor="normc(1,0.17,0.2,2)" tau="1.700" vClass="passenger"/>
        <vType accel="3.000" carFollowModel="Krauss" decel="5.000" guiShape="passenger" id="passenger12" length="4.974" minGap="1.500" sigma="0.446" speedFactor="normc(1,0.17,0.2,2)" tau="1.700" vClass="passenger"/>
        <vType accel="3.000" carFollowModel="Krauss" decel="5.000" guiShape="passenger" id="passenger13" length="4.821" minGap="1.500" sigma="0.447" speedFactor="normc(1,0.17,0.2,2)" tau="1.700" vClass="passenger"/>
        <vType accel="3.000" carFollowModel="Krauss" decel="5.000" guiShape="passenger" id="passenger14" length="4.710" minGap="1.500" sigma="0.527" speedFactor="normc(1,0.17,0.2,2)" tau="1.700" vClass="passenger"/>
        <vType accel="3.000" carFollowModel="Krauss" decel="5.000" guiShape="passenger" id="passenger15" length="4.826" minGap="1.500" sigma="0.442" speedFactor="normc(1,0.17,0.2,2)" tau="1.700" vClass="passenger"/>
        <vType accel="3.000" carFollowModel="Krauss" decel="5.000" guiShape="passenger" id="passenger16" length="5.030" minGap="1.500" sigma="0.434" speedFactor="normc(1,0.17,0.2,2)" tau="1.700" vClass="passenger"/>
        <vType accel="3.000" carFollowModel="Krauss" decel="5.000" guiShape="passenger" id="passenger17" length="4.994" minGap="1.500" sigma="0.476" speedFactor="normc(1,0.17,0.2,2)" tau="1.700" vClass="passenger"/>
        <vType accel="3.000" carFollowModel="Krauss" decel="5.000" guiShape="passenger" id="passenger18" length="4.962" minGap="1.500" sigma="0.569" speedFactor="normc(1,0.17,0.2,2)" tau="1.700" vClass="passenger"/>
        <vType accel="3.000" carFollowModel="Krauss" decel="5.000" guiShape="passenger" id="passenger19" length="5.023" minGap="1.500" sigma="0.406" speedFactor="normc(1,0.17,0.2,2)" tau="1.700" vClass="passenger"/>
        <vType accel="3.000" carFollowModel="Krauss" decel="5.000" guiShape="passenger" id="passenger20" length="4.814" minGap="1.500" sigma="0.442" speedFactor="normc(1,0.17,0.2,2)" tau="1.700" vClass="passenger"/>
        <vType accel="3.000" carFollowModel="Krauss" decel="5.000" guiShape="passenger" id="passenger21" length="4.715" minGap="1.500" sigma="0.479" speedFactor="normc(1,0.17,0.2,2)" tau="1.700" vClass="passenger"/>
        <vType accel="3.000" carFollowModel="Krauss" decel="5.000" guiShape="passenger" id="passenger22" length="5.163" minGap="1.500" sigma="0.453" speedFactor="normc(1,0.17,0.2,2)" tau="1.700" vClass="passenger"/>
        <vType accel="3.000" carFollowModel="Krauss" decel="5.000" guiShape="passenger" id="passenger23" length="4.702" minGap="1.500" sigma="0.453" speedFactor="normc(1,0.17,0.2,2)" tau="1.700" vClass="passenger"/>
        <vType accel="3.000" carFollowModel="Krauss" decel="5.000" guiShape="passenger" id="passenger24" length="5.184" minGap="1.500" sigma="0.480" speedFactor="normc(1,0.17,0.2,2)" tau="1.700" vClass="passenger"/>
        <vType accel="3.000" carFollowModel="Krauss" decel="5.000" guiShape="passenger" id="passenger25" length="4.904" minGap="1.500" sigma="0.409" speedFactor="normc(1,0.17,0.2,2)" tau="1.700" vClass="passenger"/>
        <vType accel="3.000" carFollowModel="Krauss" decel="5.000" guiShape="passenger" id="passenger26" length="4.541" minGap="1.500" sigma="0.558" speedFactor="normc(1,0.17,0.2,2)" tau="1.700" vClass="passenger"/>
        <vType accel="3.000" carFollowModel="Krauss" decel="5.000" guiShape="passenger" id="passenger27" length="4.871" minGap="1.500" sigma="0.476" speedFactor="normc(1,0.17,0.2,2)" tau="1.700" vClass="passenger"/>
        <vType accel="3.000" carFollowModel="Krauss" decel="5.000" guiShape="passenger" id="passenger28" length="5.035" minGap="1.500" sigma="0.453" speedFactor="normc(1,0.17,0.2,2)" tau="1.700" vClass="passenger"/>
        <vType accel="3.000" carFollowModel="Krauss" decel="5.000" guiShape="passenger" id="passenger29" length="4.954" minGap="1.500" sigma="0.487" speedFactor="normc(1,0.17,0.2,2)" tau="1.700" vClass="passenger"/>
        <vType accel="3.000" carFollowModel="Krauss" decel="5.000" guiShape="passenger" id="passenger30" length="4.556" minGap="1.500" sigma="0.575" speedFactor="normc(1,0.17,0.2,2)" tau="1.700" vClass="passenger"/>
        <vType accel="3.000" carFollowModel="Krauss" decel="5.000" guiShape="passenger" id="passenger31" length="4.737" minGap="1.500" sigma="0.436" speedFactor="normc(1,0.17,0.2,2)" tau="1.700" vClass="passenger"/>
        <vType accel="3.000" carFollowModel="Krauss" decel="5.000" guiShape="passenger" id="passenger32" length="4.708" minGap="1.500" sigma="0.522" speedFactor="normc(1,0.17,0.2,2)" tau="1.700" vClass="passenger"/>
        <vType accel="3.000" carFollowModel="Krauss" decel="5.000" guiShape="passenger" id="passenger33" length="4.961" minGap="1.500" sigma="0.506" speedFactor="normc(1,0.17,0.2,2)" tau="1.700" vClass="passenger"/>
        <vType accel="3.000" carFollowModel="Krauss" decel="5.000" guiShape="passenger" id="passenger34" length="4.830" minGap="1.500" sigma="0.576" speedFactor="normc(1,0.17,0.2,2)" tau="1.700" vClass="passenger"/>
        <vType accel="3.000" carFollowModel="Krauss" decel="5.000" guiShape="passenger" id="passenger35" length="4.895" minGap="1.500" sigma="0.552" speedFactor="normc(1,0.17,0.2,2)" tau="1.700" vClass="passenger"/>
        <vType accel="3.000" carFollowModel="Krauss" decel="5.000" guiShape="passenger" id="passenger36" length="5.005" minGap="1.500" sigma="0.495" speedFactor="normc(1,0.17,0.2,2)" tau="1.700" vClass="passenger"/>
        <vType accel="3.000" carFollowModel="Krauss" decel="5.000" guiShape="passenger" id="passenger37" length="4.923" minGap="1.500" sigma="0.574" speedFactor="normc(1,0.17,0.2,2)" tau="1.700" vClass="passenger"/>
        <vType accel="3.000" carFollowModel="Krauss" decel="5.000" guiShape="passenger" id="passenger38" length="4.867" minGap="1.500" sigma="0.508" speedFactor="normc(1,0.17,0.2,2)" tau="1.700" vClass="passenger"/>
        <vType accel="3.000" carFollowModel="Krauss" decel="5.000" guiShape="passenger" id="passenger39" length="4.999" minGap="1.500" sigma="0.462" speedFactor="normc(1,0.17,0.2,2)" tau="1.700" vClass="passenger"/>
        <vType accel="3.000" carFollowModel="Krauss" decel="5.000" guiShape="passenger" id="passenger40" length="4.856" minGap="1.500" sigma="0.424" speedFactor="normc(1,0.17,0.2,2)" tau="1.700" vClass="passenger"/>
        <vType accel="3.000" carFollowModel="Krauss" decel="5.000" guiShape="passenger" id="passenger41" length="4.757" minGap="1.500" sigma="0.518" speedFactor="normc(1,0.17,0.2,2)" tau="1.700" vClass="passenger"/>
        <vType accel="3.000" carFollowModel="Krauss" decel="5.000" guiShape="passenger" id="passenger42" length="4.781" minGap="1.500" sigma="0.414" speedFactor="normc(1,0.17,0.2,2)" tau="1.700" vClass="passenger"/>
        <vType accel="3.000" carFollowModel="Krauss" decel="5.000" guiShape="passenger" id="passenger43" length="4.958" minGap="1.500" sigma="0.581" speedFactor="normc(1,0.17,0.2,2)" tau="1.700" vClass="passenger"/>
        <vType accel="3.000" carFollowModel="Krauss" decel="5.000" guiShape="passenger" id="passenger44" length="4.628" minGap="1.500" sigma="0.443" speedFactor="normc(1,0.17,0.2,2)" tau="1.700" vClass="passenger"/>
        <vType accel="3.000" carFollowModel="Krauss" decel="5.000" guiShape="passenger" id="passenger45" length="4.946" minGap="1.500" sigma="0.557" speedFactor="normc(1,0.17,0.2,2)" tau="1.700" vClass="passenger"/>
        <vType accel="3.000" carFollowModel="Krauss" decel="5.000" guiShape="passenger" id="passenger46" length="5.030" minGap="1.500" sigma="0.419" speedFactor="normc(1,0.17,0.2,2)" tau="1.700" vClass="passenger"/>
        <vType accel="3.000" carFollowModel="Krauss" decel="5.000" guiShape="passenger" id="passenger47" length="4.859" minGap="1.500" sigma="0.493" speedFactor="normc(1,0.17,0.2,2)" tau="1.700" vClass="passenger"/>
        <vType accel="3.000" carFollowModel="Krauss" decel="5.000" guiShape="passenger" id="passenger48" length="5.141" minGap="1.500" sigma="0.597" speedFactor="normc(1,0.17,0.2,2)" tau="1.700" vClass="passenger"/>
        <vType accel="3.000" carFollowModel="Krauss" decel="5.000" guiShape="passenger" id="passenger49" length="4.669" minGap="1.500" sigma="0.468" speedFactor="normc(1,0.17,0.2,2)" tau="1.700" vClass="passenger"/>
        <vType accel="3.000" carFollowModel="Krauss" decel="5.000" guiShape="passenger" id="passenger50" length="5.065" minGap="1.500" sigma="0.438" speedFactor="normc(1,0.17,0.2,2)" tau="1.700" vClass="passenger"/>
        <vType accel="3.000" carFollowModel="Krauss" decel="5.000" guiShape="passenger" id="passenger51" length="4.870" minGap="1.500" sigma="0.456" speedFactor="normc(1,0.17,0.2,2)" tau="1.700" vClass="passenger"/>
        <vType accel="3.000" carFollowModel="Krauss" decel="5.000" guiShape="passenger" id="passenger52" length="4.759" minGap="1.500" sigma="0.510" speedFactor="normc(1,0.17,0.2,2)" tau="1.700" vClass="passenger"/>
        <vType accel="3.000" carFollowModel="Krauss" decel="5.000" guiShape="passenger" id="passenger53" length="4.677" minGap="1.500" sigma="0.443" speedFactor="normc(1,0.17,0.2,2)" tau="1.700" vClass="passenger"/>
        <vType accel="3.000" carFollowModel="Krauss" decel="5.000" guiShape="passenger" id="passenger54" length="4.864" minGap="1.500" sigma="0.476" speedFactor="normc(1,0.17,0.2,2)" tau="1.700" vClass="passenger"/>
        <vType accel="3.000" carFollowModel="Krauss" decel="5.000" guiShape="passenger" id="passenger55" length="5.079" minGap="1.500" sigma="0.485" speedFactor="normc(1,0.17,0.2,2)" tau="1.700" vClass="passenger"/>
        <vType accel="3.000" carFollowModel="Krauss" decel="5.000" guiShape="passenger" id="passenger56" length="4.968" minGap="1.500" sigma="0.431" speedFactor="normc(1,0.17,0.2,2)" tau="1.700" vClass="passenger"/>
        <vType accel="3.000" carFollowModel="Krauss" decel="5.000" guiShape="passenger" id="passenger57" length="4.959" minGap="1.500" sigma="0.550" speedFactor="normc(1,0.17,0.2,2)" tau="1.700" vClass="passenger"/>
        <vType accel="3.000" carFollowModel="Krauss" decel="5.000" guiShape="passenger" id="passenger58" length="4.535" minGap="1.500" sigma="0.501" speedFactor="normc(1,0.17,0.2,2)" tau="1.700" vClass="passenger"/>
        <vType accel="3.000" carFollowModel="Krauss" decel="5.000" guiShape="passenger" id="passenger59" length="5.044" minGap="1.500" sigma="0.592" speedFactor="normc(1,0.17,0.2,2)" tau="1.700" vClass="passenger"/>
        <vType accel="3.000" carFollowModel="Krauss" decel="5.000" guiShape="passenger" id="passenger60" length="4.723" minGap="1.500" sigma="0.519" speedFactor="normc(1,0.17,0.2,2)" tau="1.700" vClass="passenger"/>
        <vType accel="3.000" carFollowModel="Krauss" decel="5.000" guiShape="passenger" id="passenger61" length="4.979" minGap="1.500" sigma="0.424" speedFactor="normc(1,0.17,0.2,2)" tau="1.700" vClass="passenger"/>
        <vType accel="3.000" carFollowModel="Krauss" decel="5.000" guiShape="passenger" id="passenger62" length="5.078" minGap="1.500" sigma="0.519" speedFactor="normc(1,0.17,0.2,2)" tau="1.700" vClass="passenger"/>
        <vType accel="3.000" carFollowModel="Krauss" decel="5.000" guiShape="passenger" id="passenger63" length="4.971" minGap="1.500" sigma="0.517" speedFactor="normc(1,0.17,0.2,2)" tau="1.700" vClass="passenger"/>
        <vType accel="3.000" carFollowModel="Krauss" decel="5.000" guiShape="passenger" id="passenger64" length="5.020" minGap="1.500" sigma="0.441" speedFactor="normc(1,0.17,0.2,2)" tau="1.700" vClass="passenger"/>
        <vType accel="3.000" carFollowModel="Krauss" decel="5.000" guiShape="passenger" id="passenger65" length="4.997" minGap="1.500" sigma="0.479" speedFactor="normc(1,0.17,0.2,2)" tau="1.700" vClass="passenger"/>
        <vType accel="3.000" carFollowModel="Krauss" decel="5.000" guiShape="passenger" id="passenger66" length="4.984" minGap="1.500" sigma="0.463" speedFactor="normc(1,0.17,0.2,2)" tau="1.700" vClass="passenger"/>
        <vType accel="3.000" carFollowModel="Krauss" decel="5.000" guiShape="passenger" id="passenger67" length="4.993" minGap="1.500" sigma="0.492" speedFactor="normc(1,0.17,0.2,2)" tau="1.700" vClass="passenger"/>
        <vType accel="3.000" carFollowModel="Krauss" decel="5.000" guiShape="passenger" id="passenger68" length="4.714" minGap="1.500" sigma="0.453" speedFactor="normc(1,0.17,0.2,2)" tau="1.700" vClass="passenger"/>
        <vType accel="3.000" carFollowModel="Krauss" decel="5.000" guiShape="passenger" id="passenger69" length="5.106" minGap="1.500" sigma="0.432" speedFactor="normc(1,0.17,0.2,2)" tau="1.700" vClass="passenger"/>
        <vType accel="3.000" carFollowModel="Krauss" decel="5.000" guiShape="passenger" id="passenger70" length="5.286" minGap="1.500" sigma="0.522" speedFactor="normc(1,0.17,0.2,2)" tau="1.700" vClass="passenger"/>
        <vType accel="3.000" carFollowModel="Krauss" decel="5.000" guiShape="passenger" id="passenger71" length="4.696" minGap="1.500" sigma="0.588" speedFactor="normc(1,0.17,0.2,2)" tau="1.700" vClass="passenger"/>
        <vType accel="3.000" carFollowModel="Krauss" decel="5.000" guiShape="passenger" id="passenger72" length="4.598" minGap="1.500" sigma="0.454" speedFactor="normc(1,0.17,0.2,2)" tau="1.700" vClass="passenger"/>
        <vType accel="3.000" carFollowModel="Krauss" decel="5.000" guiShape="passenger" id="passenger73" length="5.027" minGap="1.500" sigma="0.441" speedFactor="normc(1,0.17,0.2,2)" tau="1.700" vClass="passenger"/>
        <vType accel="3.000" carFollowModel="Krauss" decel="5.000" guiShape="passenger" id="passenger74" length="4.963" minGap="1.500" sigma="0.498" speedFactor="normc(1,0.17,0.2,2)" tau="1.700" vClass="passenger"/>
        <vType accel="3.000" carFollowModel="Krauss" decel="5.000" guiShape="passenger" id="passenger75" length="4.657" minGap="1.500" sigma="0.455" speedFactor="normc(1,0.17,0.2,2)" tau="1.700" vClass="passenger"/>
        <vType accel="3.000" carFollowModel="Krauss" decel="5.000" guiShape="passenger" id="passenger76" length="4.964" minGap="1.500" sigma="0.548" speedFactor="normc(1,0.17,0.2,2)" tau="1.700" vClass="passenger"/>
        <vType accel="3.000" carFollowModel="Krauss" decel="5.000" guiShape="passenger" id="passenger77" length="4.931" minGap="1.500" sigma="0.402" speedFactor="normc(1,0.17,0.2,2)" tau="1.700" vClass="passenger"/>
        <vType accel="3.000" carFollowModel="Krauss" decel="5.000" guiShape="passenger" id="passenger78" length="5.205" minGap="1.500" sigma="0.567" speedFactor="normc(1,0.17,0.2,2)" tau="1.700" vClass="passenger"/>
        <vType accel="3.000" carFollowModel="Krauss" decel="5.000" guiShape="passenger" id="passenger79" length="4.933" minGap="1.500" sigma="0.425" speedFactor="normc(1,0.17,0.2,2)" tau="1.700" vClass="passenger"/>
        <vType accel="3.000" carFollowModel="Krauss" decel="5.000" guiShape="passenger" id="passenger80" length="5.073" minGap="1.500" sigma="0.450" speedFactor="normc(1,0.17,0.2,2)" tau="1.700" vClass="passenger"/>
        <vType accel="3.000" carFollowModel="Krauss" decel="5.000" guiShape="passenger" id="passenger81" length="5.122" minGap="1.500" sigma="0.524" speedFactor="normc(1,0.17,0.2,2)" tau="1.700" vClass="passenger"/>
        <vType accel="3.000" carFollowModel="Krauss" decel="5.000" guiShape="passenger" id="passenger82" length="5.045" minGap="1.500" sigma="0.557" speedFactor="normc(1,0.17,0.2,2)" tau="1.700" vClass="passenger"/>
        <vType accel="3.000" carFollowModel="Krauss" decel="5.000" guiShape="passenger" id="passenger83" length="5.058" minGap="1.500" sigma="0.563" speedFactor="normc(1,0.17,0.2,2)" tau="1.700" vClass="passenger"/>
        <vType accel="3.000" carFollowModel="Krauss" decel="5.000" guiShape="passenger" id="passenger84" length="4.880" minGap="1.500" sigma="0.559" speedFactor="normc(1,0.17,0.2,2)" tau="1.700" vClass="passenger"/>
        <vType accel="3.000" carFollowModel="Krauss" decel="5.000" guiShape="passenger" id="passenger85" length="4.743" minGap="1.500" sigma="0.573" speedFactor="normc(1,0.17,0.2,2)" tau="1.700" vClass="passenger"/>
        <vType accel="3.000" carFollowModel="Krauss" decel="5.000" guiShape="passenger" id="passenger86" length="5.122" minGap="1.500" sigma="0.528" speedFactor="normc(1,0.17,0.2,2)" tau="1.700" vClass="passenger"/>
        <vType accel="3.000" carFollowModel="Krauss" decel="5.000" guiShape="passenger" id="passenger87" length="5.104" minGap="1.500" sigma="0.423" speedFactor="normc(1,0.17,0.2,2)" tau="1.700" vClass="passenger"/>
        <vType accel="3.000" carFollowModel="Krauss" decel="5.000" guiShape="passenger" id="passenger88" length="5.116" minGap="1.500" sigma="0.422" speedFactor="normc(1,0.17,0.2,2)" tau="1.700" vClass="passenger"/>
        <vType accel="3.000" carFollowModel="Krauss" decel="5.000" guiShape="passenger" id="passenger89" length="4.817" minGap="1.500" sigma="0.463" speedFactor="normc(1,0.17,0.2,2)" tau="1.700" vClass="passenger"/>
        <vType accel="3.000" carFollowModel="Krauss" decel="5.000" guiShape="passenger" id="passenger90" length="4.975" minGap="1.500" sigma="0.477" speedFactor="normc(1,0.17,0.2,2)" tau="1.700" vClass="passenger"/>
        <vType accel="3.000" carFollowModel="Krauss" decel="5.000" guiShape="passenger" id="passenger91" length="4.935" minGap="1.500" sigma="0.542" speedFactor="normc(1,0.17,0.2,2)" tau="1.700" vClass="passenger"/>
        <vType accel="3.000" carFollowModel="Krauss" decel="5.000" guiShape="passenger" id="passenger92" length="4.947" minGap="1.500" sigma="0.548" speedFactor="normc(1,0.17,0.2,2)" tau="1.700" vClass="passenger"/>
        <vType accel="3.000" carFollowModel="Krauss" decel="5.000" guiShape="passenger" id="passenger93" length="4.992" minGap="1.500" sigma="0.414" speedFactor="normc(1,0.17,0.2,2)" tau="1.700" vClass="passenger"/>
        <vType accel="3.000" carFollowModel="Krauss" decel="5.000" guiShape="passenger" id="passenger94" length="4.984" minGap="1.500" sigma="0.463" speedFactor="normc(1,0.17,0.2,2)" tau="1.700" vClass="passenger"/>
        <vType accel="3.000" carFollowModel="Krauss" decel="5.000" guiShape="passenger" id="passenger95" length="5.326" minGap="1.500" sigma="0.460" speedFactor="normc(1,0.17,0.2,2)" tau="1.700" vClass="passenger"/>
        <vType accel="3.000" carFollowModel="Krauss" decel="5.000" guiShape="passenger" id="passenger96" length="4.789" minGap="1.500" sigma="0.480" speedFactor="normc(1,0.17,0.2,2)" tau="1.700" vClass="passenger"/>
        <vType accel="3.000" carFollowModel="Krauss" decel="5.000" guiShape="passenger" id="passenger97" length="4.820" minGap="1.500" sigma="0.484" speedFactor="normc(1,0.17,0.2,2)" tau="1.700" vClass="passenger"/>
        <vType accel="3.000" carFollowModel="Krauss" decel="5.000" guiShape="passenger" id="passenger98" length="5.259" minGap="1.500" sigma="0.460" speedFactor="normc(1,0.17,0.2,2)" tau="1.700" vClass="passenger"/>
        <vType accel="3.000" carFollowModel="Krauss" decel="5.000" guiShape="passenger" id="passenger99" length="4.772" minGap="1.500" sigma="0.516" speedFactor="normc(1,0.17,0.2,2)" tau="1.700" vClass="passenger"/>
    </vTypeDistribution>
</additional>
