<additional xmlns:xsi="http://www.w3.org/2001/XMLSchema-instance" xsi:noNamespaceSchemaLocation="http://sumo.dlr.de/xsd/additional_file.xsd">
    <vTypeDistribution id="passenger">
        <vType accel="3.000" carFollowModel="Krauss" decel="5.000" guiShape="passenger" id="passenger0" length="4.949" maxSpeed="80.000" minGap="1.500" sigma="0.055" speedFactor="normc(1,0.11,0.2,2)" tau="1.700" vClass="passenger"/>
        <vType accel="3.000" carFollowModel="Krauss" decel="5.000" guiShape="passenger" id="passenger1" length="4.540" maxSpeed="80.000" minGap="1.500" sigma="0.135" speedFactor="normc(1,0.11,0.2,2)" tau="1.700" vClass="passenger"/>
        <vType accel="3.000" carFollowModel="Krauss" decel="5.000" guiShape="passenger" id="passenger2" length="4.872" maxSpeed="80.000" minGap="1.500" sigma="0.044" speedFactor="normc(1,0.11,0.2,2)" tau="1.700" vClass="passenger"/>
        <vType accel="3.000" carFollowModel="Krauss" decel="5.000" guiShape="passenger" id="passenger3" length="4.902" maxSpeed="80.000" minGap="1.500" sigma="0.040" speedFactor="normc(1,0.11,0.2,2)" tau="1.700" vClass="passenger"/>
        <vType accel="3.000" carFollowModel="Krauss" decel="5.000" guiShape="passenger" id="passenger4" length="5.013" maxSpeed="80.000" minGap="1.500" sigma="0.044" speedFactor="normc(1,0.11,0.2,2)" tau="1.700" vClass="passenger"/>
        <vType accel="3.000" carFollowModel="Krauss" decel="5.000" guiShape="passenger" id="passenger5" length="5.061" maxSpeed="80.000" minGap="1.500" sigma="0.001" speedFactor="normc(1,0.11,0.2,2)" tau="1.700" vClass="passenger"/>
        <vType accel="3.000" carFollowModel="Krauss" decel="5.000" guiShape="passenger" id="passenger6" length="5.248" maxSpeed="80.000" minGap="1.500" sigma="0.068" speedFactor="normc(1,0.11,0.2,2)" tau="1.700" vClass="passenger"/>
        <vType accel="3.000" carFollowModel="Krauss" decel="5.000" guiShape="passenger" id="passenger7" length="4.838" maxSpeed="80.000" minGap="1.500" sigma="0.019" speedFactor="normc(1,0.11,0.2,2)" tau="1.700" vClass="passenger"/>
        <vType accel="3.000" carFollowModel="Krauss" decel="5.000" guiShape="passenger" id="passenger8" length="5.201" maxSpeed="80.000" minGap="1.500" sigma="0.161" speedFactor="normc(1,0.11,0.2,2)" tau="1.700" vClass="passenger"/>
        <vType accel="3.000" carFollowModel="Krauss" decel="5.000" guiShape="passenger" id="passenger9" length="5.070" maxSpeed="80.000" minGap="1.500" sigma="0.195" speedFactor="normc(1,0.11,0.2,2)" tau="1.700" vClass="passenger"/>
        <vType accel="3.000" carFollowModel="Krauss" decel="5.000" guiShape="passenger" id="passenger10" length="4.807" maxSpeed="80.000" minGap="1.500" sigma="0.166" speedFactor="normc(1,0.11,0.2,2)" tau="1.700" vClass="passenger"/>
        <vType accel="3.000" carFollowModel="Krauss" decel="5.000" guiShape="passenger" id="passenger11" length="5.194" maxSpeed="80.000" minGap="1.500" sigma="0.115" speedFactor="normc(1,0.11,0.2,2)" tau="1.700" vClass="passenger"/>
        <vType accel="3.000" carFollowModel="Krauss" decel="5.000" guiShape="passenger" id="passenger12" length="4.974" maxSpeed="80.000" minGap="1.500" sigma="0.046" speedFactor="normc(1,0.11,0.2,2)" tau="1.700" vClass="passenger"/>
        <vType accel="3.000" carFollowModel="Krauss" decel="5.000" guiShape="passenger" id="passenger13" length="4.821" maxSpeed="80.000" minGap="1.500" sigma="0.047" speedFactor="normc(1,0.11,0.2,2)" tau="1.700" vClass="passenger"/>
        <vType accel="3.000" carFollowModel="Krauss" decel="5.000" guiShape="passenger" id="passenger14" length="4.710" maxSpeed="80.000" minGap="1.500" sigma="0.127" speedFactor="normc(1,0.11,0.2,2)" tau="1.700" vClass="passenger"/>
        <vType accel="3.000" carFollowModel="Krauss" decel="5.000" guiShape="passenger" id="passenger15" length="4.826" maxSpeed="80.000" minGap="1.500" sigma="0.042" speedFactor="normc(1,0.11,0.2,2)" tau="1.700" vClass="passenger"/>
        <vType accel="3.000" carFollowModel="Krauss" decel="5.000" guiShape="passenger" id="passenger16" length="5.030" maxSpeed="80.000" minGap="1.500" sigma="0.034" speedFactor="normc(1,0.11,0.2,2)" tau="1.700" vClass="passenger"/>
        <vType accel="3.000" carFollowModel="Krauss" decel="5.000" guiShape="passenger" id="passenger17" length="4.994" maxSpeed="80.000" minGap="1.500" sigma="0.076" speedFactor="normc(1,0.11,0.2,2)" tau="1.700" vClass="passenger"/>
        <vType accel="3.000" carFollowModel="Krauss" decel="5.000" guiShape="passenger" id="passenger18" length="4.962" maxSpeed="80.000" minGap="1.500" sigma="0.169" speedFactor="normc(1,0.11,0.2,2)" tau="1.700" vClass="passenger"/>
        <vType accel="3.000" carFollowModel="Krauss" decel="5.000" guiShape="passenger" id="passenger19" length="5.023" maxSpeed="80.000" minGap="1.500" sigma="0.006" speedFactor="normc(1,0.11,0.2,2)" tau="1.700" vClass="passenger"/>
        <vType accel="3.000" carFollowModel="Krauss" decel="5.000" guiShape="passenger" id="passenger20" length="4.814" maxSpeed="80.000" minGap="1.500" sigma="0.042" speedFactor="normc(1,0.11,0.2,2)" tau="1.700" vClass="passenger"/>
        <vType accel="3.000" carFollowModel="Krauss" decel="5.000" guiShape="passenger" id="passenger21" length="4.715" maxSpeed="80.000" minGap="1.500" sigma="0.079" speedFactor="normc(1,0.11,0.2,2)" tau="1.700" vClass="passenger"/>
        <vType accel="3.000" carFollowModel="Krauss" decel="5.000" guiShape="passenger" id="passenger22" length="5.163" maxSpeed="80.000" minGap="1.500" sigma="0.053" speedFactor="normc(1,0.11,0.2,2)" tau="1.700" vClass="passenger"/>
        <vType accel="3.000" carFollowModel="Krauss" decel="5.000" guiShape="passenger" id="passenger23" length="4.702" maxSpeed="80.000" minGap="1.500" sigma="0.053" speedFactor="normc(1,0.11,0.2,2)" tau="1.700" vClass="passenger"/>
        <vType accel="3.000" carFollowModel="Krauss" decel="5.000" guiShape="passenger" id="passenger24" length="5.184" maxSpeed="80.000" minGap="1.500" sigma="0.080" speedFactor="normc(1,0.11,0.2,2)" tau="1.700" vClass="passenger"/>
        <vType accel="3.000" carFollowModel="Krauss" decel="5.000" guiShape="passenger" id="passenger25" length="4.904" maxSpeed="80.000" minGap="1.500" sigma="0.009" speedFactor="normc(1,0.11,0.2,2)" tau="1.700" vClass="passenger"/>
        <vType accel="3.000" carFollowModel="Krauss" decel="5.000" guiShape="passenger" id="passenger26" length="4.541" maxSpeed="80.000" minGap="1.500" sigma="0.158" speedFactor="normc(1,0.11,0.2,2)" tau="1.700" vClass="passenger"/>
        <vType accel="3.000" carFollowModel="Krauss" decel="5.000" guiShape="passenger" id="passenger27" length="4.871" maxSpeed="80.000" minGap="1.500" sigma="0.076" speedFactor="normc(1,0.11,0.2,2)" tau="1.700" vClass="passenger"/>
        <vType accel="3.000" carFollowModel="Krauss" decel="5.000" guiShape="passenger" id="passenger28" length="5.035" maxSpeed="80.000" minGap="1.500" sigma="0.053" speedFactor="normc(1,0.11,0.2,2)" tau="1.700" vClass="passenger"/>
        <vType accel="3.000" carFollowModel="Krauss" decel="5.000" guiShape="passenger" id="passenger29" length="4.954" maxSpeed="80.000" minGap="1.500" sigma="0.087" speedFactor="normc(1,0.11,0.2,2)" tau="1.700" vClass="passenger"/>
        <vType accel="3.000" carFollowModel="Krauss" decel="5.000" guiShape="passenger" id="passenger30" length="4.556" maxSpeed="80.000" minGap="1.500" sigma="0.175" speedFactor="normc(1,0.11,0.2,2)" tau="1.700" vClass="passenger"/>
        <vType accel="3.000" carFollowModel="Krauss" decel="5.000" guiShape="passenger" id="passenger31" length="4.737" maxSpeed="80.000" minGap="1.500" sigma="0.036" speedFactor="normc(1,0.11,0.2,2)" tau="1.700" vClass="passenger"/>
        <vType accel="3.000" carFollowModel="Krauss" decel="5.000" guiShape="passenger" id="passenger32" length="4.708" maxSpeed="80.000" minGap="1.500" sigma="0.122" speedFactor="normc(1,0.11,0.2,2)" tau="1.700" vClass="passenger"/>
        <vType accel="3.000" carFollowModel="Krauss" decel="5.000" guiShape="passenger" id="passenger33" length="4.961" maxSpeed="80.000" minGap="1.500" sigma="0.106" speedFactor="normc(1,0.11,0.2,2)" tau="1.700" vClass="passenger"/>
        <vType accel="3.000" carFollowModel="Krauss" decel="5.000" guiShape="passenger" id="passenger34" length="4.830" maxSpeed="80.000" minGap="1.500" sigma="0.176" speedFactor="normc(1,0.11,0.2,2)" tau="1.700" vClass="passenger"/>
        <vType accel="3.000" carFollowModel="Krauss" decel="5.000" guiShape="passenger" id="passenger35" length="4.895" maxSpeed="80.000" minGap="1.500" sigma="0.152" speedFactor="normc(1,0.11,0.2,2)" tau="1.700" vClass="passenger"/>
        <vType accel="3.000" carFollowModel="Krauss" decel="5.000" guiShape="passenger" id="passenger36" length="5.005" maxSpeed="80.000" minGap="1.500" sigma="0.095" speedFactor="normc(1,0.11,0.2,2)" tau="1.700" vClass="passenger"/>
        <vType accel="3.000" carFollowModel="Krauss" decel="5.000" guiShape="passenger" id="passenger37" length="4.923" maxSpeed="80.000" minGap="1.500" sigma="0.174" speedFactor="normc(1,0.11,0.2,2)" tau="1.700" vClass="passenger"/>
        <vType accel="3.000" carFollowModel="Krauss" decel="5.000" guiShape="passenger" id="passenger38" length="4.867" maxSpeed="80.000" minGap="1.500" sigma="0.108" speedFactor="normc(1,0.11,0.2,2)" tau="1.700" vClass="passenger"/>
        <vType accel="3.000" carFollowModel="Krauss" decel="5.000" guiShape="passenger" id="passenger39" length="4.999" maxSpeed="80.000" minGap="1.500" sigma="0.062" speedFactor="normc(1,0.11,0.2,2)" tau="1.700" vClass="passenger"/>
        <vType accel="3.000" carFollowModel="Krauss" decel="5.000" guiShape="passenger" id="passenger40" length="4.856" maxSpeed="80.000" minGap="1.500" sigma="0.024" speedFactor="normc(1,0.11,0.2,2)" tau="1.700" vClass="passenger"/>
        <vType accel="3.000" carFollowModel="Krauss" decel="5.000" guiShape="passenger" id="passenger41" length="4.757" maxSpeed="80.000" minGap="1.500" sigma="0.118" speedFactor="normc(1,0.11,0.2,2)" tau="1.700" vClass="passenger"/>
        <vType accel="3.000" carFollowModel="Krauss" decel="5.000" guiShape="passenger" id="passenger42" length="4.781" maxSpeed="80.000" minGap="1.500" sigma="0.014" speedFactor="normc(1,0.11,0.2,2)" tau="1.700" vClass="passenger"/>
        <vType accel="3.000" carFollowModel="Krauss" decel="5.000" guiShape="passenger" id="passenger43" length="4.958" maxSpeed="80.000" minGap="1.500" sigma="0.181" speedFactor="normc(1,0.11,0.2,2)" tau="1.700" vClass="passenger"/>
        <vType accel="3.000" carFollowModel="Krauss" decel="5.000" guiShape="passenger" id="passenger44" length="4.628" maxSpeed="80.000" minGap="1.500" sigma="0.043" speedFactor="normc(1,0.11,0.2,2)" tau="1.700" vClass="passenger"/>
        <vType accel="3.000" carFollowModel="Krauss" decel="5.000" guiShape="passenger" id="passenger45" length="4.946" maxSpeed="80.000" minGap="1.500" sigma="0.157" speedFactor="normc(1,0.11,0.2,2)" tau="1.700" vClass="passenger"/>
        <vType accel="3.000" carFollowModel="Krauss" decel="5.000" guiShape="passenger" id="passenger46" length="5.030" maxSpeed="80.000" minGap="1.500" sigma="0.019" speedFactor="normc(1,0.11,0.2,2)" tau="1.700" vClass="passenger"/>
        <vType accel="3.000" carFollowModel="Krauss" decel="5.000" guiShape="passenger" id="passenger47" length="4.859" maxSpeed="80.000" minGap="1.500" sigma="0.093" speedFactor="normc(1,0.11,0.2,2)" tau="1.700" vClass="passenger"/>
        <vType accel="3.000" carFollowModel="Krauss" decel="5.000" guiShape="passenger" id="passenger48" length="5.141" maxSpeed="80.000" minGap="1.500" sigma="0.197" speedFactor="normc(1,0.11,0.2,2)" tau="1.700" vClass="passenger"/>
        <vType accel="3.000" carFollowModel="Krauss" decel="5.000" guiShape="passenger" id="passenger49" length="4.669" maxSpeed="80.000" minGap="1.500" sigma="0.068" speedFactor="normc(1,0.11,0.2,2)" tau="1.700" vClass="passenger"/>
        <vType accel="3.000" carFollowModel="Krauss" decel="5.000" guiShape="passenger" id="passenger50" length="5.065" maxSpeed="80.000" minGap="1.500" sigma="0.038" speedFactor="normc(1,0.11,0.2,2)" tau="1.700" vClass="passenger"/>
        <vType accel="3.000" carFollowModel="Krauss" decel="5.000" guiShape="passenger" id="passenger51" length="4.870" maxSpeed="80.000" minGap="1.500" sigma="0.056" speedFactor="normc(1,0.11,0.2,2)" tau="1.700" vClass="passenger"/>
        <vType accel="3.000" carFollowModel="Krauss" decel="5.000" guiShape="passenger" id="passenger52" length="4.759" maxSpeed="80.000" minGap="1.500" sigma="0.110" speedFactor="normc(1,0.11,0.2,2)" tau="1.700" vClass="passenger"/>
        <vType accel="3.000" carFollowModel="Krauss" decel="5.000" guiShape="passenger" id="passenger53" length="4.677" maxSpeed="80.000" minGap="1.500" sigma="0.043" speedFactor="normc(1,0.11,0.2,2)" tau="1.700" vClass="passenger"/>
        <vType accel="3.000" carFollowModel="Krauss" decel="5.000" guiShape="passenger" id="passenger54" length="4.864" maxSpeed="80.000" minGap="1.500" sigma="0.076" speedFactor="normc(1,0.11,0.2,2)" tau="1.700" vClass="passenger"/>
        <vType accel="3.000" carFollowModel="Krauss" decel="5.000" guiShape="passenger" id="passenger55" length="5.079" maxSpeed="80.000" minGap="1.500" sigma="0.085" speedFactor="normc(1,0.11,0.2,2)" tau="1.700" vClass="passenger"/>
        <vType accel="3.000" carFollowModel="Krauss" decel="5.000" guiShape="passenger" id="passenger56" length="4.968" maxSpeed="80.000" minGap="1.500" sigma="0.031" speedFactor="normc(1,0.11,0.2,2)" tau="1.700" vClass="passenger"/>
        <vType accel="3.000" carFollowModel="Krauss" decel="5.000" guiShape="passenger" id="passenger57" length="4.959" maxSpeed="80.000" minGap="1.500" sigma="0.150" speedFactor="normc(1,0.11,0.2,2)" tau="1.700" vClass="passenger"/>
        <vType accel="3.000" carFollowModel="Krauss" decel="5.000" guiShape="passenger" id="passenger58" length="4.535" maxSpeed="80.000" minGap="1.500" sigma="0.101" speedFactor="normc(1,0.11,0.2,2)" tau="1.700" vClass="passenger"/>
        <vType accel="3.000" carFollowModel="Krauss" decel="5.000" guiShape="passenger" id="passenger59" length="5.044" maxSpeed="80.000" minGap="1.500" sigma="0.192" speedFactor="normc(1,0.11,0.2,2)" tau="1.700" vClass="passenger"/>
        <vType accel="3.000" carFollowModel="Krauss" decel="5.000" guiShape="passenger" id="passenger60" length="4.723" maxSpeed="80.000" minGap="1.500" sigma="0.119" speedFactor="normc(1,0.11,0.2,2)" tau="1.700" vClass="passenger"/>
        <vType accel="3.000" carFollowModel="Krauss" decel="5.000" guiShape="passenger" id="passenger61" length="4.979" maxSpeed="80.000" minGap="1.500" sigma="0.024" speedFactor="normc(1,0.11,0.2,2)" tau="1.700" vClass="passenger"/>
        <vType accel="3.000" carFollowModel="Krauss" decel="5.000" guiShape="passenger" id="passenger62" length="5.078" maxSpeed="80.000" minGap="1.500" sigma="0.119" speedFactor="normc(1,0.11,0.2,2)" tau="1.700" vClass="passenger"/>
        <vType accel="3.000" carFollowModel="Krauss" decel="5.000" guiShape="passenger" id="passenger63" length="4.971" maxSpeed="80.000" minGap="1.500" sigma="0.117" speedFactor="normc(1,0.11,0.2,2)" tau="1.700" vClass="passenger"/>
        <vType accel="3.000" carFollowModel="Krauss" decel="5.000" guiShape="passenger" id="passenger64" length="5.020" maxSpeed="80.000" minGap="1.500" sigma="0.041" speedFactor="normc(1,0.11,0.2,2)" tau="1.700" vClass="passenger"/>
        <vType accel="3.000" carFollowModel="Krauss" decel="5.000" guiShape="passenger" id="passenger65" length="4.997" maxSpeed="80.000" minGap="1.500" sigma="0.079" speedFactor="normc(1,0.11,0.2,2)" tau="1.700" vClass="passenger"/>
        <vType accel="3.000" carFollowModel="Krauss" decel="5.000" guiShape="passenger" id="passenger66" length="4.984" maxSpeed="80.000" minGap="1.500" sigma="0.063" speedFactor="normc(1,0.11,0.2,2)" tau="1.700" vClass="passenger"/>
        <vType accel="3.000" carFollowModel="Krauss" decel="5.000" guiShape="passenger" id="passenger67" length="4.993" maxSpeed="80.000" minGap="1.500" sigma="0.092" speedFactor="normc(1,0.11,0.2,2)" tau="1.700" vClass="passenger"/>
        <vType accel="3.000" carFollowModel="Krauss" decel="5.000" guiShape="passenger" id="passenger68" length="4.714" maxSpeed="80.000" minGap="1.500" sigma="0.053" speedFactor="normc(1,0.11,0.2,2)" tau="1.700" vClass="passenger"/>
        <vType accel="3.000" carFollowModel="Krauss" decel="5.000" guiShape="passenger" id="passenger69" length="5.106" maxSpeed="80.000" minGap="1.500" sigma="0.032" speedFactor="normc(1,0.11,0.2,2)" tau="1.700" vClass="passenger"/>
        <vType accel="3.000" carFollowModel="Krauss" decel="5.000" guiShape="passenger" id="passenger70" length="5.286" maxSpeed="80.000" minGap="1.500" sigma="0.122" speedFactor="normc(1,0.11,0.2,2)" tau="1.700" vClass="passenger"/>
        <vType accel="3.000" carFollowModel="Krauss" decel="5.000" guiShape="passenger" id="passenger71" length="4.696" maxSpeed="80.000" minGap="1.500" sigma="0.188" speedFactor="normc(1,0.11,0.2,2)" tau="1.700" vClass="passenger"/>
        <vType accel="3.000" carFollowModel="Krauss" decel="5.000" guiShape="passenger" id="passenger72" length="4.598" maxSpeed="80.000" minGap="1.500" sigma="0.054" speedFactor="normc(1,0.11,0.2,2)" tau="1.700" vClass="passenger"/>
        <vType accel="3.000" carFollowModel="Krauss" decel="5.000" guiShape="passenger" id="passenger73" length="5.027" maxSpeed="80.000" minGap="1.500" sigma="0.041" speedFactor="normc(1,0.11,0.2,2)" tau="1.700" vClass="passenger"/>
        <vType accel="3.000" carFollowModel="Krauss" decel="5.000" guiShape="passenger" id="passenger74" length="4.963" maxSpeed="80.000" minGap="1.500" sigma="0.098" speedFactor="normc(1,0.11,0.2,2)" tau="1.700" vClass="passenger"/>
        <vType accel="3.000" carFollowModel="Krauss" decel="5.000" guiShape="passenger" id="passenger75" length="4.657" maxSpeed="80.000" minGap="1.500" sigma="0.055" speedFactor="normc(1,0.11,0.2,2)" tau="1.700" vClass="passenger"/>
        <vType accel="3.000" carFollowModel="Krauss" decel="5.000" guiShape="passenger" id="passenger76" length="4.964" maxSpeed="80.000" minGap="1.500" sigma="0.148" speedFactor="normc(1,0.11,0.2,2)" tau="1.700" vClass="passenger"/>
        <vType accel="3.000" carFollowModel="Krauss" decel="5.000" guiShape="passenger" id="passenger77" length="4.931" maxSpeed="80.000" minGap="1.500" sigma="0.002" speedFactor="normc(1,0.11,0.2,2)" tau="1.700" vClass="passenger"/>
        <vType accel="3.000" carFollowModel="Krauss" decel="5.000" guiShape="passenger" id="passenger78" length="5.205" maxSpeed="80.000" minGap="1.500" sigma="0.167" speedFactor="normc(1,0.11,0.2,2)" tau="1.700" vClass="passenger"/>
        <vType accel="3.000" carFollowModel="Krauss" decel="5.000" guiShape="passenger" id="passenger79" length="4.933" maxSpeed="80.000" minGap="1.500" sigma="0.025" speedFactor="normc(1,0.11,0.2,2)" tau="1.700" vClass="passenger"/>
        <vType accel="3.000" carFollowModel="Krauss" decel="5.000" guiShape="passenger" id="passenger80" length="5.073" maxSpeed="80.000" minGap="1.500" sigma="0.050" speedFactor="normc(1,0.11,0.2,2)" tau="1.700" vClass="passenger"/>
        <vType accel="3.000" carFollowModel="Krauss" decel="5.000" guiShape="passenger" id="passenger81" length="5.122" maxSpeed="80.000" minGap="1.500" sigma="0.124" speedFactor="normc(1,0.11,0.2,2)" tau="1.700" vClass="passenger"/>
        <vType accel="3.000" carFollowModel="Krauss" decel="5.000" guiShape="passenger" id="passenger82" length="5.045" maxSpeed="80.000" minGap="1.500" sigma="0.157" speedFactor="normc(1,0.11,0.2,2)" tau="1.700" vClass="passenger"/>
        <vType accel="3.000" carFollowModel="Krauss" decel="5.000" guiShape="passenger" id="passenger83" length="5.058" maxSpeed="80.000" minGap="1.500" sigma="0.163" speedFactor="normc(1,0.11,0.2,2)" tau="1.700" vClass="passenger"/>
        <vType accel="3.000" carFollowModel="Krauss" decel="5.000" guiShape="passenger" id="passenger84" length="4.880" maxSpeed="80.000" minGap="1.500" sigma="0.159" speedFactor="normc(1,0.11,0.2,2)" tau="1.700" vClass="passenger"/>
        <vType accel="3.000" carFollowModel="Krauss" decel="5.000" guiShape="passenger" id="passenger85" length="4.743" maxSpeed="80.000" minGap="1.500" sigma="0.173" speedFactor="normc(1,0.11,0.2,2)" tau="1.700" vClass="passenger"/>
        <vType accel="3.000" carFollowModel="Krauss" decel="5.000" guiShape="passenger" id="passenger86" length="5.122" maxSpeed="80.000" minGap="1.500" sigma="0.128" speedFactor="normc(1,0.11,0.2,2)" tau="1.700" vClass="passenger"/>
        <vType accel="3.000" carFollowModel="Krauss" decel="5.000" guiShape="passenger" id="passenger87" length="5.104" maxSpeed="80.000" minGap="1.500" sigma="0.023" speedFactor="normc(1,0.11,0.2,2)" tau="1.700" vClass="passenger"/>
        <vType accel="3.000" carFollowModel="Krauss" decel="5.000" guiShape="passenger" id="passenger88" length="5.116" maxSpeed="80.000" minGap="1.500" sigma="0.022" speedFactor="normc(1,0.11,0.2,2)" tau="1.700" vClass="passenger"/>
        <vType accel="3.000" carFollowModel="Krauss" decel="5.000" guiShape="passenger" id="passenger89" length="4.817" maxSpeed="80.000" minGap="1.500" sigma="0.063" speedFactor="normc(1,0.11,0.2,2)" tau="1.700" vClass="passenger"/>
        <vType accel="3.000" carFollowModel="Krauss" decel="5.000" guiShape="passenger" id="passenger90" length="4.975" maxSpeed="80.000" minGap="1.500" sigma="0.077" speedFactor="normc(1,0.11,0.2,2)" tau="1.700" vClass="passenger"/>
        <vType accel="3.000" carFollowModel="Krauss" decel="5.000" guiShape="passenger" id="passenger91" length="4.935" maxSpeed="80.000" minGap="1.500" sigma="0.142" speedFactor="normc(1,0.11,0.2,2)" tau="1.700" vClass="passenger"/>
        <vType accel="3.000" carFollowModel="Krauss" decel="5.000" guiShape="passenger" id="passenger92" length="4.947" maxSpeed="80.000" minGap="1.500" sigma="0.148" speedFactor="normc(1,0.11,0.2,2)" tau="1.700" vClass="passenger"/>
        <vType accel="3.000" carFollowModel="Krauss" decel="5.000" guiShape="passenger" id="passenger93" length="4.992" maxSpeed="80.000" minGap="1.500" sigma="0.014" speedFactor="normc(1,0.11,0.2,2)" tau="1.700" vClass="passenger"/>
        <vType accel="3.000" carFollowModel="Krauss" decel="5.000" guiShape="passenger" id="passenger94" length="4.984" maxSpeed="80.000" minGap="1.500" sigma="0.063" speedFactor="normc(1,0.11,0.2,2)" tau="1.700" vClass="passenger"/>
        <vType accel="3.000" carFollowModel="Krauss" decel="5.000" guiShape="passenger" id="passenger95" length="5.326" maxSpeed="80.000" minGap="1.500" sigma="0.060" speedFactor="normc(1,0.11,0.2,2)" tau="1.700" vClass="passenger"/>
        <vType accel="3.000" carFollowModel="Krauss" decel="5.000" guiShape="passenger" id="passenger96" length="4.789" maxSpeed="80.000" minGap="1.500" sigma="0.080" speedFactor="normc(1,0.11,0.2,2)" tau="1.700" vClass="passenger"/>
        <vType accel="3.000" carFollowModel="Krauss" decel="5.000" guiShape="passenger" id="passenger97" length="4.820" maxSpeed="80.000" minGap="1.500" sigma="0.084" speedFactor="normc(1,0.11,0.2,2)" tau="1.700" vClass="passenger"/>
        <vType accel="3.000" carFollowModel="Krauss" decel="5.000" guiShape="passenger" id="passenger98" length="5.259" maxSpeed="80.000" minGap="1.500" sigma="0.060" speedFactor="normc(1,0.11,0.2,2)" tau="1.700" vClass="passenger"/>
        <vType accel="3.000" carFollowModel="Krauss" decel="5.000" guiShape="passenger" id="passenger99" length="4.772" maxSpeed="80.000" minGap="1.500" sigma="0.116" speedFactor="normc(1,0.11,0.2,2)" tau="1.700" vClass="passenger"/>
    </vTypeDistribution>
</additional>
