<additional>       
        <inductionLoop id="3rdst1" lane="2220_1" pos="20.5422678375429" file="out.xml" freq="300" friendlyPos="True"/>
	<inductionLoop id="3rdst10" lane="16927_0" pos="6.15709432526375" file="out.xml" freq="300" friendlyPos="True"/>
	<inductionLoop id="3rdst2" lane="-2220_0" pos="171.818098400211" file="out.xml" freq="300" friendlyPos="True"/>
	<inductionLoop id="3rdst3" lane="17078_1" pos="1.6102769580214" file="out.xml" freq="300" friendlyPos="True"/>
	<inductionLoop id="3rdst4" lane="-17077_1" pos="10.5917377627451" file="out.xml" freq="300" friendlyPos="True"/>
	<inductionLoop id="3rdst5" lane="16492_1" pos="65.533193379605" file="out.xml" freq="300" friendlyPos="True"/>
	<inductionLoop id="3rdst6" lane="-16492_0" pos="74.7283806730195" file="out.xml" freq="300" friendlyPos="True"/>
	<inductionLoop id="3rdst7" lane="16927_1" pos="85.5447916628928" file="out.xml" freq="300" friendlyPos="True"/>
	<inductionLoop id="3rdst8" lane="-16927_0" pos="92.8798699042289" file="out.xml" freq="300" friendlyPos="True"/>
	<inductionLoop id="3rdst9" lane="-16929_0" pos="7.16336597498356" file="out.xml" freq="300" friendlyPos="True"/>
	<inductionLoop id="Broad_MLK" lane="gneE28_0" pos="15.6691422980943" file="out.xml" freq="300" friendlyPos="True"/>
	<inductionLoop id="Central_MLK_1" lane="17270_1" pos="4.51329236941918" file="out.xml" freq="300" friendlyPos="True"/>
	<inductionLoop id="Central_MLK_2" lane="-17270_0" pos="17.8031279544138" file="out.xml" freq="300" friendlyPos="True"/>
	<inductionLoop id="Chestnut_MLK" lane="335_2" pos="5.51330794078631" file="out.xml" freq="300" friendlyPos="True"/>
	<inductionLoop id="Emain1" lane="25667_1" pos="10.5016599804105" file="out.xml" freq="300" friendlyPos="True"/>
	<inductionLoop id="Emain2" lane="25667_0" pos="11.657849647438" file="out.xml" freq="300" friendlyPos="True"/>
	<inductionLoop id="Georgia_MLK_1" lane="1528_0" pos="9.44352120851757" file="out.xml" freq="300" friendlyPos="True"/>
	<inductionLoop id="Georgia_MLK_3" lane="-1528_1" pos="9.50968690300669" file="out.xml" freq="300" friendlyPos="True"/>
	<inductionLoop id="Magnolia_MLK_1" lane="16500_1" pos="7.65217812052624" file="out.xml" freq="300" friendlyPos="True"/>
	<inductionLoop id="Magnolia2_MLK_1" lane="16501_1" pos="8.47358991348881" file="out.xml" freq="300" friendlyPos="True"/>
	<inductionLoop id="Magnolia2_MLK_2" lane="-16501_0" pos="5.48023685840189" file="out.xml" freq="300" friendlyPos="True"/>
	<inductionLoop id="Market_MLK_1" lane="-1523_0" pos="5.0128498972786" file="out.xml" freq="300" friendlyPos="True"/>
	<inductionLoop id="Market_MLK_2" lane="1523_1" pos="3.84909058378683" file="out.xml" freq="300" friendlyPos="True"/>
	<inductionLoop id="Market_MLK_3" lane="1523_0" pos="17.5977826004571" file="out.xml" freq="300" friendlyPos="True"/>
	<inductionLoop id="Market_MLK_4" lane="1524_0" pos="8.33779143744139" file="out.xml" freq="300" friendlyPos="True"/>
	<inductionLoop id="mc1" lane="25330_0" pos="65.4986277556171" file="out.xml" freq="300" friendlyPos="True"/>
	<inductionLoop id="mc10" lane="-25488_0" pos="38.1985085818546" file="out.xml" freq="300" friendlyPos="True"/>
	<inductionLoop id="mc11" lane="15798_1" pos="48.3217359143901" file="out.xml" freq="300" friendlyPos="True"/>
	<inductionLoop id="mc12" lane="-16160_1" pos="36.2274977918909" file="out.xml" freq="300" friendlyPos="True"/>
	<inductionLoop id="mc2" lane="-25330_0" pos="57.4347988056695" file="out.xml" freq="300" friendlyPos="True"/>
	<inductionLoop id="mc3" lane="25366_1" pos="64.0805591995841" file="out.xml" freq="300" friendlyPos="True"/>
	<inductionLoop id="mc4" lane="-25366_0" pos="69.3908571594811" file="out.xml" freq="300" friendlyPos="True"/>
	<inductionLoop id="mc5" lane="25435_1" pos="7.72742919737089" file="out.xml" freq="300" friendlyPos="True"/>
	<inductionLoop id="mc6" lane="-25435_1" pos="14.024826709887" file="out.xml" freq="300" friendlyPos="True"/>
	<inductionLoop id="mc7" lane="-25459_1" pos="7.96949193693123" file="out.xml" freq="300" friendlyPos="True"/>
	<inductionLoop id="mc8" lane="25459_1" pos="6.40638773958819" file="out.xml" freq="300" friendlyPos="True"/>
	<inductionLoop id="mc9" lane="25488_1" pos="52.0576973720524" file="out.xml" freq="300" friendlyPos="True"/>
	<inductionLoop id="MLK1" lane="1528_1" pos="80.109362465103" file="out.xml" freq="300" friendlyPos="True"/>
	<inductionLoop id="MLK10" lane="-16486_0" pos="56.164158013053" file="out.xml" freq="300" friendlyPos="True"/>
	<inductionLoop id="MLK11" lane="17060_0" pos="68.9382348357085" file="out.xml" freq="300" friendlyPos="True"/>
	<inductionLoop id="MLK12" lane="-17060_1" pos="11.7610075403103" file="out.xml" freq="300" friendlyPos="True"/>
	<inductionLoop id="MLK13" lane="17059_0" pos="63.6597127297403" file="out.xml" freq="300" friendlyPos="True"/>
	<inductionLoop id="MLK14" lane="-17059_1" pos="41.4765455005302" file="out.xml" freq="300" friendlyPos="True"/>
	<inductionLoop id="MLK2" lane="-1528_0" pos="47.7835413957881" file="out.xml" freq="300" friendlyPos="True"/>
	<inductionLoop id="MLK3" lane="-1534_1" pos="46.2842899641059" file="out.xml" freq="300" friendlyPos="True"/>
	<inductionLoop id="MLK4" lane="1534_0" pos="45.9880272632992" file="out.xml" freq="300" friendlyPos="True"/>
	<inductionLoop id="MLK5" lane="-1536_0" pos="22.5790611688787" file="out.xml" freq="300" friendlyPos="True"/>
	<inductionLoop id="MLK6" lane="1536_1" pos="14.7530974759849" file="out.xml" freq="300" friendlyPos="True"/>
	<inductionLoop id="MLK7" lane="16485_1" pos="63.2089586422907" file="out.xml" freq="300" friendlyPos="True"/>
	<inductionLoop id="MLK8" lane="-16485_0" pos="37.6514020500265" file="out.xml" freq="300" friendlyPos="True"/>
	<inductionLoop id="MLK9" lane="16486_0" pos="64.0621731326889" file="out.xml" freq="300" friendlyPos="True"/>
	<inductionLoop id="Olgiati_Bridge_1" lane="-804_0" pos="74.6973994542047" file="out.xml" freq="300" friendlyPos="True"/>
	<inductionLoop id="Olgiati_Bridge_2" lane="300_1" pos="71.98267995783" file="out.xml" freq="300" friendlyPos="True"/>
	<inductionLoop id="p101" lane="-78769_0" pos="3.25024240489449" file="out.xml" freq="300" friendlyPos="True"/>
	<inductionLoop id="p102" lane="78769_0" pos="6.07067003080736" file="out.xml" freq="300" friendlyPos="True"/>
	<inductionLoop id="p103" lane="1604_1" pos="159.113598730535" file="out.xml" freq="300" friendlyPos="True"/>
	<inductionLoop id="p104" lane="-1604_1" pos="197.372265044665" file="out.xml" freq="300" friendlyPos="True"/>
	<inductionLoop id="p106" lane="30910_0" pos="70.1086376486274" file="out.xml" freq="300" friendlyPos="True"/>
	<inductionLoop id="p107" lane="25886_0" pos="112.648016786641" file="out.xml" freq="300" friendlyPos="True"/>
	<inductionLoop id="p108" lane="-16650_1" pos="40.1157451682834" file="out.xml" freq="300" friendlyPos="True"/>
	<inductionLoop id="p109" lane="-17118_0" pos="67.5103702332842" file="out.xml" freq="300" friendlyPos="True"/>
	<inductionLoop id="p110" lane="-16223_1" pos="69.5012738829733" file="out.xml" freq="300" friendlyPos="True"/>
	<inductionLoop id="p111" lane="15775_0" pos="65.3679059660874" file="out.xml" freq="300" friendlyPos="True"/>
	<inductionLoop id="p112" lane="-16095_1" pos="120.010273726305" file="out.xml" freq="300" friendlyPos="True"/>
	<inductionLoop id="p113" lane="15794_1" pos="70.4940967170251" file="out.xml" freq="300" friendlyPos="True"/>
	<inductionLoop id="p114" lane="16687_1" pos="115.185499570848" file="out.xml" freq="300" friendlyPos="True"/>
	<inductionLoop id="p115" lane="-17225_1" pos="153.111614471719" file="out.xml" freq="300" friendlyPos="True"/>
	<inductionLoop id="p116" lane="16787_1" pos="265.188553754789" file="out.xml" freq="300" friendlyPos="True"/>
	<inductionLoop id="p117" lane="-16795_1" pos="145.518045989428" file="out.xml" freq="300" friendlyPos="True"/>
	<inductionLoop id="p118" lane="16881_0" pos="391.712632875772" file="out.xml" freq="300" friendlyPos="True"/>
	<inductionLoop id="p119" lane="-16061_0" pos="81.101731393063" file="out.xml" freq="300" friendlyPos="True"/>
	<inductionLoop id="p120" lane="15764_0" pos="109.607901594197" file="out.xml" freq="300" friendlyPos="True"/>
	<inductionLoop id="p128" lane="24058_0" pos="3.5694699303222" file="out.xml" freq="300" friendlyPos="True"/>
	<inductionLoop id="p130" lane="16877_1" pos="122.767840063957" file="out.xml" freq="300" friendlyPos="True"/>
	<inductionLoop id="p131" lane="16477_0" pos="9.78389140502726" file="out.xml" freq="300" friendlyPos="True"/>
	<inductionLoop id="p132" lane="-16477_1" pos="8.01901244156635" file="out.xml" freq="300" friendlyPos="True"/>
	<inductionLoop id="p133" lane="-16126_0" pos="2.64928202915303" file="out.xml" freq="300" friendlyPos="True"/>
	<inductionLoop id="p134" lane="15785_2" pos="89.1632561596153" file="out.xml" freq="300" friendlyPos="True"/>
	<inductionLoop id="p135" lane="15874_2" pos="176.913380386991" file="out.xml" freq="300" friendlyPos="True"/>
	<inductionLoop id="p136" lane="-16124_1" pos="217.010452258998" file="out.xml" freq="300" friendlyPos="True"/>
	<inductionLoop id="p137" lane="-16982_1" pos="20.0096275140118" file="out.xml" freq="300" friendlyPos="True"/>
	<inductionLoop id="p138" lane="-16087_2" pos="58.934803854513" file="out.xml" freq="300" friendlyPos="True"/>
	<inductionLoop id="p139" lane="-15998_1" pos="180.823944950743" file="out.xml" freq="300" friendlyPos="True"/>
	<inductionLoop id="p140" lane="15915_1" pos="50.8149234835583" file="out.xml" freq="300" friendlyPos="True"/>
	<inductionLoop id="p141" lane="16716_1" pos="9.04755338842476" file="out.xml" freq="300" friendlyPos="True"/>
	<inductionLoop id="p142" lane="-16255_2" pos="14.9684439014706" file="out.xml" freq="300" friendlyPos="True"/>
	<inductionLoop id="p143" lane="-15997_1" pos="172.358911032801" file="out.xml" freq="300" friendlyPos="True"/>
	<inductionLoop id="p144" lane="-78736_1" pos="187.210130960635" file="out.xml" freq="300" friendlyPos="True"/>
	<inductionLoop id="p145" lane="-16231_2" pos="114.082939841474" file="out.xml" freq="300" friendlyPos="True"/>
	<inductionLoop id="p147" lane="15938_2" pos="48.260908635403" file="out.xml" freq="300" friendlyPos="True"/>
	<inductionLoop id="p148" lane="-38657_1" pos="29.5839251335026" file="out.xml" freq="300" friendlyPos="True"/>
	<inductionLoop id="p149" lane="-16235_1" pos="11.3606947499809" file="out.xml" freq="300" friendlyPos="True"/>
	<inductionLoop id="p150" lane="-16616_1" pos="31.7280449942084" file="out.xml" freq="300" friendlyPos="True"/>
	<inductionLoop id="p151" lane="-31834_0" pos="7.75291214701679" file="out.xml" freq="300" friendlyPos="True"/>
	<inductionLoop id="p152" lane="15897_0" pos="207.302057916342" file="out.xml" freq="300" friendlyPos="True"/>
	<inductionLoop id="p153" lane="-16232_0" pos="1385.86595532013" file="out.xml" freq="300" friendlyPos="True"/>
	<inductionLoop id="p154" lane="25702_0" pos="17.1137623423606" file="out.xml" freq="300" friendlyPos="True"/>
	<inductionLoop id="p155" lane="-25702_1" pos="5.96068546293706" file="out.xml" freq="300" friendlyPos="True"/>
	<inductionLoop id="p156" lane="-17166_1" pos="16.7702398871892" file="out.xml" freq="300" friendlyPos="True"/>
	<inductionLoop id="p157" lane="17166_0" pos="12.8185788376722" file="out.xml" freq="300" friendlyPos="True"/>
	<inductionLoop id="p158" lane="-16529_0" pos="7.23977148004956" file="out.xml" freq="300" friendlyPos="True"/>
	<inductionLoop id="p161" lane="31701_0" pos="12.9234551746562" file="out.xml" freq="300" friendlyPos="True"/>
	<inductionLoop id="p162" lane="-31700_1" pos="9.42979137744517" file="out.xml" freq="300" friendlyPos="True"/>
	<inductionLoop id="p163" lane="-16955_0" pos="55.3064958395713" file="out.xml" freq="300" friendlyPos="True"/>
	<inductionLoop id="p164" lane="15880_1" pos="85.7535823718084" file="out.xml" freq="300" friendlyPos="True"/>
	<inductionLoop id="p165" lane="-16185_0" pos="60.3695125962552" file="out.xml" freq="300" friendlyPos="True"/>
	<inductionLoop id="p166" lane="362_0" pos="4.24125949588453" file="out.xml" freq="300" friendlyPos="True"/>
	<inductionLoop id="p167" lane="-843_1" pos="43.6581246549725" file="out.xml" freq="300" friendlyPos="True"/>
	<inductionLoop id="p168" lane="-971_1" pos="23.5121998616171" file="out.xml" freq="300" friendlyPos="True"/>
	<inductionLoop id="p169" lane="339_1" pos="0.519772203381527" file="out.xml" freq="300" friendlyPos="True"/>
	<inductionLoop id="p170" lane="-839_1" pos="23.283378086314" file="out.xml" freq="300" friendlyPos="True"/>
	<inductionLoop id="p172" lane="-1030_1" pos="51.0292770246395" file="out.xml" freq="300" friendlyPos="True"/>
	<inductionLoop id="p173" lane="110_1" pos="244.286419120957" file="out.xml" freq="300" friendlyPos="True"/>
	<inductionLoop id="p174" lane="-634_0" pos="298.187443535647" file="out.xml" freq="300" friendlyPos="True"/>
	<inductionLoop id="p175" lane="317_0" pos="61.8060316224402" file="out.xml" freq="300" friendlyPos="True"/>
	<inductionLoop id="p177" lane="1673_2" pos="80.3675814654972" file="out.xml" freq="300" friendlyPos="True"/>
	<inductionLoop id="p178" lane="-1673_1" pos="66.7597897085426" file="out.xml" freq="300" friendlyPos="True"/>
	<inductionLoop id="p179" lane="-912_0" pos="6.1976351416484" file="out.xml" freq="300" friendlyPos="True"/>
	<inductionLoop id="p180" lane="319_1" pos="29.1035546908008" file="out.xml" freq="300" friendlyPos="True"/>
	<inductionLoop id="p181" lane="-826_1" pos="374.374852284425" file="out.xml" freq="300" friendlyPos="True"/>
	<inductionLoop id="p182" lane="321_0" pos="20.3168622253483" file="out.xml" freq="300" friendlyPos="True"/>
	<inductionLoop id="p183" lane="-628_0" pos="1415.10385636936" file="out.xml" freq="300" friendlyPos="True"/>
	<inductionLoop id="p184" lane="278_0" pos="449.154645088059" file="out.xml" freq="300" friendlyPos="True"/>
	<inductionLoop id="p187" lane="-1497_1" pos="5.12180008131241" file="out.xml" freq="300" friendlyPos="True"/>
	<inductionLoop id="p188" lane="75_0" pos="111.150984432494" file="out.xml" freq="300" friendlyPos="True"/>
	<inductionLoop id="p189" lane="4174_0" pos="6.01475240589323" file="out.xml" freq="300" friendlyPos="True"/>
	<inductionLoop id="p190" lane="4174_0" pos="9.18982696651915" file="out.xml" freq="300" friendlyPos="True"/>
	<inductionLoop id="p191" lane="2237_1" pos="98.3683508910049" file="out.xml" freq="300" friendlyPos="True"/>
	<inductionLoop id="p192" lane="33428_0" pos="278.098994063473" file="out.xml" freq="300" friendlyPos="True"/>
	<inductionLoop id="p193" lane="-33428_0" pos="52.587520700626" file="out.xml" freq="300" friendlyPos="True"/>
	<inductionLoop id="p194" lane="-17665_1" pos="26.5428907038441" file="out.xml" freq="300" friendlyPos="True"/>
        <inductionLoop id="People_MLK_1" lane="16496_1" pos="13.7454215760122" file="out.xml" freq="300" friendlyPos="True"/>
	<inductionLoop id="People_MLK_2" lane="17060_0" pos="3.72932839271225" file="out.xml" freq="300" friendlyPos="True"/>
	<inductionLoop id="Untitled_Placemark_2" lane="1528_1" pos="4.33864266869866" file="out.xml" freq="300" friendlyPos="True"/>
	<inductionLoop id="Veternas_bridge_1" lane="-2079_1" pos="15.510023263176" file="out.xml" freq="300" friendlyPos="True"/>
	<inductionLoop id="Veternas_bridge_2" lane="2079_2" pos="172.570971266687" file="out.xml" freq="300" friendlyPos="True"/>
</additional>