<additional xmlns:xsi="http://www.w3.org/2001/XMLSchema-instance" xsi:noNamespaceSchemaLocation="http://sumo.dlr.de/xsd/additional_file.xsd">
    <vTypeDistribution id="passenger">
        <vType accel="3.000" carFollowModel="Krauss" decel="5.000" guiShape="passenger" id="passenger0" length="4.949" minGap="1.500" speedFactor="0.916" vClass="passenger"/>
        <vType accel="3.000" carFollowModel="Krauss" decel="5.000" guiShape="passenger" id="passenger1" length="5.151" minGap="1.500" speedFactor="0.977" vClass="passenger"/>
        <vType accel="3.000" carFollowModel="Krauss" decel="5.000" guiShape="passenger" id="passenger2" length="4.705" minGap="1.500" speedFactor="1.096" vClass="passenger"/>
        <vType accel="3.000" carFollowModel="Krauss" decel="5.000" guiShape="passenger" id="passenger3" length="4.666" minGap="1.500" speedFactor="1.295" vClass="passenger"/>
        <vType accel="3.000" carFollowModel="Krauss" decel="5.000" guiShape="passenger" id="passenger4" length="4.835" minGap="1.500" speedFactor="1.201" vClass="passenger"/>
        <vType accel="3.000" carFollowModel="Krauss" decel="5.000" guiShape="passenger" id="passenger5" length="5.201" minGap="1.500" speedFactor="1.331" vClass="passenger"/>
        <vType accel="3.000" carFollowModel="Krauss" decel="5.000" guiShape="passenger" id="passenger6" length="5.362" minGap="1.500" speedFactor="0.921" vClass="passenger"/>
        <vType accel="3.000" carFollowModel="Krauss" decel="5.000" guiShape="passenger" id="passenger7" length="5.196" minGap="1.500" speedFactor="1.250" vClass="passenger"/>
        <vType accel="3.000" carFollowModel="Krauss" decel="5.000" guiShape="passenger" id="passenger8" length="4.974" minGap="1.500" speedFactor="0.888" vClass="passenger"/>
        <vType accel="3.000" carFollowModel="Krauss" decel="5.000" guiShape="passenger" id="passenger9" length="4.712" minGap="1.500" speedFactor="0.839" vClass="passenger"/>
        <vType accel="3.000" carFollowModel="Krauss" decel="5.000" guiShape="passenger" id="passenger10" length="4.973" minGap="1.500" speedFactor="0.952" vClass="passenger"/>
        <vType accel="3.000" carFollowModel="Krauss" decel="5.000" guiShape="passenger" id="passenger11" length="5.030" minGap="1.500" speedFactor="0.646" vClass="passenger"/>
        <vType accel="3.000" carFollowModel="Krauss" decel="5.000" guiShape="passenger" id="passenger12" length="4.714" minGap="1.500" speedFactor="1.053" vClass="passenger"/>
        <vType accel="3.000" carFollowModel="Krauss" decel="5.000" guiShape="passenger" id="passenger13" length="4.814" minGap="1.500" speedFactor="1.160" vClass="passenger"/>
        <vType accel="3.000" carFollowModel="Krauss" decel="5.000" guiShape="passenger" id="passenger14" length="4.988" minGap="1.500" speedFactor="1.223" vClass="passenger"/>
        <vType accel="3.000" carFollowModel="Krauss" decel="5.000" guiShape="passenger" id="passenger15" length="4.793" minGap="1.500" speedFactor="1.024" vClass="passenger"/>
        <vType accel="3.000" carFollowModel="Krauss" decel="5.000" guiShape="passenger" id="passenger16" length="5.184" minGap="1.500" speedFactor="0.962" vClass="passenger"/>
        <vType accel="3.000" carFollowModel="Krauss" decel="5.000" guiShape="passenger" id="passenger17" length="4.541" minGap="1.500" speedFactor="1.147" vClass="passenger"/>
        <vType accel="3.000" carFollowModel="Krauss" decel="5.000" guiShape="passenger" id="passenger18" length="4.658" minGap="1.500" speedFactor="1.114" vClass="passenger"/>
        <vType accel="3.000" carFollowModel="Krauss" decel="5.000" guiShape="passenger" id="passenger19" length="4.677" minGap="1.500" speedFactor="0.800" vClass="passenger"/>
        <vType accel="3.000" carFollowModel="Krauss" decel="5.000" guiShape="passenger" id="passenger20" length="4.556" minGap="1.500" speedFactor="1.149" vClass="passenger"/>
        <vType accel="3.000" carFollowModel="Krauss" decel="5.000" guiShape="passenger" id="passenger21" length="4.900" minGap="1.500" speedFactor="0.837" vClass="passenger"/>
        <vType accel="3.000" carFollowModel="Krauss" decel="5.000" guiShape="passenger" id="passenger22" length="4.944" minGap="1.500" speedFactor="1.166" vClass="passenger"/>
        <vType accel="3.000" carFollowModel="Krauss" decel="5.000" guiShape="passenger" id="passenger23" length="5.104" minGap="1.500" speedFactor="0.940" vClass="passenger"/>
        <vType accel="3.000" carFollowModel="Krauss" decel="5.000" guiShape="passenger" id="passenger24" length="4.623" minGap="1.500" speedFactor="1.089" vClass="passenger"/>
        <vType accel="3.000" carFollowModel="Krauss" decel="5.000" guiShape="passenger" id="passenger25" length="4.881" minGap="1.500" speedFactor="0.972" vClass="passenger"/>
        <vType accel="3.000" carFollowModel="Krauss" decel="5.000" guiShape="passenger" id="passenger26" length="4.950" minGap="1.500" speedFactor="0.873" vClass="passenger"/>
        <vType accel="3.000" carFollowModel="Krauss" decel="5.000" guiShape="passenger" id="passenger27" length="4.856" minGap="1.500" speedFactor="0.857" vClass="passenger"/>
        <vType accel="3.000" carFollowModel="Krauss" decel="5.000" guiShape="passenger" id="passenger28" length="4.765" minGap="1.500" speedFactor="0.899" vClass="passenger"/>
        <vType accel="3.000" carFollowModel="Krauss" decel="5.000" guiShape="passenger" id="passenger29" length="4.501" minGap="1.500" speedFactor="0.769" vClass="passenger"/>
        <vType accel="3.000" carFollowModel="Krauss" decel="5.000" guiShape="passenger" id="passenger30" length="4.787" minGap="1.500" speedFactor="1.296" vClass="passenger"/>
        <vType accel="3.000" carFollowModel="Krauss" decel="5.000" guiShape="passenger" id="passenger31" length="4.856" minGap="1.500" speedFactor="1.111" vClass="passenger"/>
        <vType accel="3.000" carFollowModel="Krauss" decel="5.000" guiShape="passenger" id="passenger32" length="4.657" minGap="1.500" speedFactor="0.958" vClass="passenger"/>
        <vType accel="3.000" carFollowModel="Krauss" decel="5.000" guiShape="passenger" id="passenger33" length="5.141" minGap="1.500" speedFactor="0.957" vClass="passenger"/>
        <vType accel="3.000" carFollowModel="Krauss" decel="5.000" guiShape="passenger" id="passenger34" length="5.065" minGap="1.500" speedFactor="0.836" vClass="passenger"/>
        <vType accel="3.000" carFollowModel="Krauss" decel="5.000" guiShape="passenger" id="passenger35" length="4.863" minGap="1.500" speedFactor="0.880" vClass="passenger"/>
        <vType accel="3.000" carFollowModel="Krauss" decel="5.000" guiShape="passenger" id="passenger36" length="4.918" minGap="1.500" speedFactor="1.122" vClass="passenger"/>
        <vType accel="3.000" carFollowModel="Krauss" decel="5.000" guiShape="passenger" id="passenger37" length="4.894" minGap="1.500" speedFactor="0.969" vClass="passenger"/>
        <vType accel="3.000" carFollowModel="Krauss" decel="5.000" guiShape="passenger" id="passenger38" length="4.527" minGap="1.500" speedFactor="0.977" vClass="passenger"/>
        <vType accel="3.000" carFollowModel="Krauss" decel="5.000" guiShape="passenger" id="passenger39" length="4.968" minGap="1.500" speedFactor="0.857" vClass="passenger"/>
        <vType accel="3.000" carFollowModel="Krauss" decel="5.000" guiShape="passenger" id="passenger40" length="4.957" minGap="1.500" speedFactor="0.689" vClass="passenger"/>
        <vType accel="3.000" carFollowModel="Krauss" decel="5.000" guiShape="passenger" id="passenger41" length="4.907" minGap="1.500" speedFactor="0.850" vClass="passenger"/>
        <vType accel="3.000" carFollowModel="Krauss" decel="5.000" guiShape="passenger" id="passenger42" length="5.000" minGap="1.500" speedFactor="0.912" vClass="passenger"/>
        <vType accel="3.000" carFollowModel="Krauss" decel="5.000" guiShape="passenger" id="passenger43" length="5.078" minGap="1.500" speedFactor="1.072" vClass="passenger"/>
        <vType accel="3.000" carFollowModel="Krauss" decel="5.000" guiShape="passenger" id="passenger44" length="4.833" minGap="1.500" speedFactor="1.102" vClass="passenger"/>
        <vType accel="3.000" carFollowModel="Krauss" decel="5.000" guiShape="passenger" id="passenger45" length="4.542" minGap="1.500" speedFactor="0.874" vClass="passenger"/>
        <vType accel="3.000" carFollowModel="Krauss" decel="5.000" guiShape="passenger" id="passenger46" length="4.984" minGap="1.500" speedFactor="0.784" vClass="passenger"/>
        <vType accel="3.000" carFollowModel="Krauss" decel="5.000" guiShape="passenger" id="passenger47" length="4.629" minGap="1.500" speedFactor="0.842" vClass="passenger"/>
        <vType accel="3.000" carFollowModel="Krauss" decel="5.000" guiShape="passenger" id="passenger48" length="4.847" minGap="1.500" speedFactor="1.328" vClass="passenger"/>
        <vType accel="3.000" carFollowModel="Krauss" decel="5.000" guiShape="passenger" id="passenger49" length="5.055" minGap="1.500" speedFactor="0.743" vClass="passenger"/>
        <vType accel="3.000" carFollowModel="Krauss" decel="5.000" guiShape="passenger" id="passenger50" length="4.702" minGap="1.500" speedFactor="1.080" vClass="passenger"/>
        <vType accel="3.000" carFollowModel="Krauss" decel="5.000" guiShape="passenger" id="passenger51" length="4.963" minGap="1.500" speedFactor="0.965" vClass="passenger"/>
        <vType accel="3.000" carFollowModel="Krauss" decel="5.000" guiShape="passenger" id="passenger52" length="4.864" minGap="1.500" speedFactor="1.054" vClass="passenger"/>
        <vType accel="3.000" carFollowModel="Krauss" decel="5.000" guiShape="passenger" id="passenger53" length="5.085" minGap="1.500" speedFactor="0.979" vClass="passenger"/>
        <vType accel="3.000" carFollowModel="Krauss" decel="5.000" guiShape="passenger" id="passenger54" length="5.205" minGap="1.500" speedFactor="1.234" vClass="passenger"/>
        <vType accel="3.000" carFollowModel="Krauss" decel="5.000" guiShape="passenger" id="passenger55" length="4.762" minGap="1.500" speedFactor="1.147" vClass="passenger"/>
        <vType accel="3.000" carFollowModel="Krauss" decel="5.000" guiShape="passenger" id="passenger56" length="4.804" minGap="1.500" speedFactor="0.928" vClass="passenger"/>
        <vType accel="3.000" carFollowModel="Krauss" decel="5.000" guiShape="passenger" id="passenger57" length="5.045" minGap="1.500" speedFactor="1.094" vClass="passenger"/>
        <vType accel="3.000" carFollowModel="Krauss" decel="5.000" guiShape="passenger" id="passenger58" length="4.381" minGap="1.500" speedFactor="0.983" vClass="passenger"/>
        <vType accel="3.000" carFollowModel="Krauss" decel="5.000" guiShape="passenger" id="passenger59" length="5.031" minGap="1.500" speedFactor="0.631" vClass="passenger"/>
        <vType accel="3.000" carFollowModel="Krauss" decel="5.000" guiShape="passenger" id="passenger60" length="5.122" minGap="1.500" speedFactor="1.069" vClass="passenger"/>
        <vType accel="3.000" carFollowModel="Krauss" decel="5.000" guiShape="passenger" id="passenger61" length="5.116" minGap="1.500" speedFactor="0.798" vClass="passenger"/>
        <vType accel="3.000" carFollowModel="Krauss" decel="5.000" guiShape="passenger" id="passenger62" length="5.014" minGap="1.500" speedFactor="1.063" vClass="passenger"/>
        <vType accel="3.000" carFollowModel="Krauss" decel="5.000" guiShape="passenger" id="passenger63" length="4.807" minGap="1.500" speedFactor="0.754" vClass="passenger"/>
        <vType accel="3.000" carFollowModel="Krauss" decel="5.000" guiShape="passenger" id="passenger64" length="4.947" minGap="1.500" speedFactor="1.214" vClass="passenger"/>
        <vType accel="3.000" carFollowModel="Krauss" decel="5.000" guiShape="passenger" id="passenger65" length="4.850" minGap="1.500" speedFactor="1.072" vClass="passenger"/>
        <vType accel="3.000" carFollowModel="Krauss" decel="5.000" guiShape="passenger" id="passenger66" length="4.480" minGap="1.500" speedFactor="1.092" vClass="passenger"/>
        <vType accel="3.000" carFollowModel="Krauss" decel="5.000" guiShape="passenger" id="passenger67" length="4.789" minGap="1.500" speedFactor="0.960" vClass="passenger"/>
        <vType accel="3.000" carFollowModel="Krauss" decel="5.000" guiShape="passenger" id="passenger68" length="4.679" minGap="1.500" speedFactor="1.306" vClass="passenger"/>
        <vType accel="3.000" carFollowModel="Krauss" decel="5.000" guiShape="passenger" id="passenger69" length="4.749" minGap="1.500" speedFactor="0.951" vClass="passenger"/>
        <vType accel="3.000" carFollowModel="Krauss" decel="5.000" guiShape="passenger" id="passenger70" length="4.999" minGap="1.500" speedFactor="0.979" vClass="passenger"/>
        <vType accel="3.000" carFollowModel="Krauss" decel="5.000" guiShape="passenger" id="passenger71" length="4.807" minGap="1.500" speedFactor="1.104" vClass="passenger"/>
        <vType accel="3.000" carFollowModel="Krauss" decel="5.000" guiShape="passenger" id="passenger72" length="4.606" minGap="1.500" speedFactor="1.058" vClass="passenger"/>
        <vType accel="3.000" carFollowModel="Krauss" decel="5.000" guiShape="passenger" id="passenger73" length="5.339" minGap="1.500" speedFactor="1.065" vClass="passenger"/>
        <vType accel="3.000" carFollowModel="Krauss" decel="5.000" guiShape="passenger" id="passenger74" length="4.733" minGap="1.500" speedFactor="0.933" vClass="passenger"/>
        <vType accel="3.000" carFollowModel="Krauss" decel="5.000" guiShape="passenger" id="passenger75" length="4.555" minGap="1.500" speedFactor="0.998" vClass="passenger"/>
        <vType accel="3.000" carFollowModel="Krauss" decel="5.000" guiShape="passenger" id="passenger76" length="5.274" minGap="1.500" speedFactor="0.800" vClass="passenger"/>
        <vType accel="3.000" carFollowModel="Krauss" decel="5.000" guiShape="passenger" id="passenger77" length="4.906" minGap="1.500" speedFactor="0.936" vClass="passenger"/>
        <vType accel="3.000" carFollowModel="Krauss" decel="5.000" guiShape="passenger" id="passenger78" length="5.247" minGap="1.500" speedFactor="1.129" vClass="passenger"/>
        <vType accel="3.000" carFollowModel="Krauss" decel="5.000" guiShape="passenger" id="passenger79" length="5.151" minGap="1.500" speedFactor="0.990" vClass="passenger"/>
        <vType accel="3.000" carFollowModel="Krauss" decel="5.000" guiShape="passenger" id="passenger80" length="4.661" minGap="1.500" speedFactor="1.162" vClass="passenger"/>
        <vType accel="3.000" carFollowModel="Krauss" decel="5.000" guiShape="passenger" id="passenger81" length="4.960" minGap="1.500" speedFactor="0.827" vClass="passenger"/>
        <vType accel="3.000" carFollowModel="Krauss" decel="5.000" guiShape="passenger" id="passenger82" length="4.785" minGap="1.500" speedFactor="1.014" vClass="passenger"/>
        <vType accel="3.000" carFollowModel="Krauss" decel="5.000" guiShape="passenger" id="passenger83" length="4.599" minGap="1.500" speedFactor="1.064" vClass="passenger"/>
        <vType accel="3.000" carFollowModel="Krauss" decel="5.000" guiShape="passenger" id="passenger84" length="4.831" minGap="1.500" speedFactor="0.969" vClass="passenger"/>
        <vType accel="3.000" carFollowModel="Krauss" decel="5.000" guiShape="passenger" id="passenger85" length="4.612" minGap="1.500" speedFactor="1.081" vClass="passenger"/>
        <vType accel="3.000" carFollowModel="Krauss" decel="5.000" guiShape="passenger" id="passenger86" length="4.694" minGap="1.500" speedFactor="0.906" vClass="passenger"/>
        <vType accel="3.000" carFollowModel="Krauss" decel="5.000" guiShape="passenger" id="passenger87" length="4.940" minGap="1.500" speedFactor="0.896" vClass="passenger"/>
        <vType accel="3.000" carFollowModel="Krauss" decel="5.000" guiShape="passenger" id="passenger88" length="4.877" minGap="1.500" speedFactor="0.851" vClass="passenger"/>
        <vType accel="3.000" carFollowModel="Krauss" decel="5.000" guiShape="passenger" id="passenger89" length="4.861" minGap="1.500" speedFactor="0.989" vClass="passenger"/>
        <vType accel="3.000" carFollowModel="Krauss" decel="5.000" guiShape="passenger" id="passenger90" length="4.943" minGap="1.500" speedFactor="0.929" vClass="passenger"/>
        <vType accel="3.000" carFollowModel="Krauss" decel="5.000" guiShape="passenger" id="passenger91" length="4.668" minGap="1.500" speedFactor="0.789" vClass="passenger"/>
        <vType accel="3.000" carFollowModel="Krauss" decel="5.000" guiShape="passenger" id="passenger92" length="4.753" minGap="1.500" speedFactor="1.123" vClass="passenger"/>
        <vType accel="3.000" carFollowModel="Krauss" decel="5.000" guiShape="passenger" id="passenger93" length="5.414" minGap="1.500" speedFactor="0.921" vClass="passenger"/>
        <vType accel="3.000" carFollowModel="Krauss" decel="5.000" guiShape="passenger" id="passenger94" length="5.135" minGap="1.500" speedFactor="1.180" vClass="passenger"/>
        <vType accel="3.000" carFollowModel="Krauss" decel="5.000" guiShape="passenger" id="passenger95" length="4.512" minGap="1.500" speedFactor="1.024" vClass="passenger"/>
        <vType accel="3.000" carFollowModel="Krauss" decel="5.000" guiShape="passenger" id="passenger96" length="5.194" minGap="1.500" speedFactor="0.753" vClass="passenger"/>
        <vType accel="3.000" carFollowModel="Krauss" decel="5.000" guiShape="passenger" id="passenger97" length="4.996" minGap="1.500" speedFactor="0.830" vClass="passenger"/>
        <vType accel="3.000" carFollowModel="Krauss" decel="5.000" guiShape="passenger" id="passenger98" length="5.161" minGap="1.500" speedFactor="1.068" vClass="passenger"/>
        <vType accel="3.000" carFollowModel="Krauss" decel="5.000" guiShape="passenger" id="passenger99" length="5.075" minGap="1.500" speedFactor="1.256" vClass="passenger"/>
    </vTypeDistribution>
</additional>
