<?xml version="1.0" encoding="UTF-8"?>

<!-- generated on Mon Dec 21 22:55:58 2020 by Eclipse SUMO od2trips Version 1.7.0
<configuration xmlns:xsi="http://www.w3.org/2001/XMLSchema-instance" xsi:noNamespaceSchemaLocation="http://sumo.dlr.de/xsd/od2tripsConfiguration.xsd">

    <input>
        <taz-files value="../data/taz.xml"/>
        <od-matrix-files value="../data/OD_person.od"/>
    </input>

    <output>
        <output-file value="Person_trips.xml"/>
        <persontrips value="true"/>
        <persontrips.modes value="public"/>
    </output>

    <processing>
        <prefix value="person"/>
    </processing>

</configuration>
-->

<routes xmlns:xsi="http://www.w3.org/2001/XMLSchema-instance" xsi:noNamespaceSchemaLocation="http://sumo.dlr.de/xsd/routes_file.xsd">
    <person id="person1519" depart="17503.47" departPos="random">
        <personTrip from="15925" to="15911" arrivalPos="random" modes="public"/>
    </person>
    <person id="person393" depart="17600.43" departPos="random">
        <personTrip from="6650" to="6474" arrivalPos="random" modes="public"/>
    </person>
    <person id="person733" depart="17665.27" departPos="random">
        <personTrip from="38564" to="5637" arrivalPos="random" modes="public"/>
    </person>
    <person id="person123" depart="17721.07" departPos="random">
        <personTrip from="9299" to="13811" arrivalPos="random" modes="public"/>
    </person>
    <person id="person355" depart="17739.76" departPos="random">
        <personTrip from="1089" to="5798" arrivalPos="random" modes="public"/>
    </person>
    <person id="person1055" depart="17853.10" departPos="random">
        <personTrip from="-3828" to="3845" arrivalPos="random" modes="public"/>
    </person>
    <person id="person950" depart="17918.02" departPos="random">
        <personTrip from="-13207" to="4188" arrivalPos="random" modes="public"/>
    </person>
    <person id="person663" depart="17928.68" departPos="random">
        <personTrip from="5370" to="5392" arrivalPos="random" modes="public"/>
    </person>
    <person id="person457" depart="17941.66" departPos="random">
        <personTrip from="13579" to="-1606" arrivalPos="random" modes="public"/>
    </person>
    <person id="person1642" depart="17973.61" departPos="random">
        <personTrip from="-17199" to="-17216" arrivalPos="random" modes="public"/>
    </person>
    <person id="person1387" depart="17997.20" departPos="random">
        <personTrip from="-15494" to="-13816" arrivalPos="random" modes="public"/>
    </person>
    <person id="person1150" depart="18006.98" departPos="random">
        <personTrip from="1669" to="-5582" arrivalPos="random" modes="public"/>
    </person>
    <person id="person806" depart="18105.33" departPos="random">
        <personTrip from="-12499" to="-3401" arrivalPos="random" modes="public"/>
    </person>
    <person id="person1184" depart="18185.92" departPos="random">
        <personTrip from="-14653" to="-11628" arrivalPos="random" modes="public"/>
    </person>
    <person id="person712" depart="18186.04" departPos="random">
        <personTrip from="2538" to="-1606" arrivalPos="random" modes="public"/>
    </person>
    <person id="person1056" depart="18186.61" departPos="random">
        <personTrip from="3917" to="-3925" arrivalPos="random" modes="public"/>
    </person>
    <person id="person1078" depart="18330.80" departPos="random">
        <personTrip from="94" to="-3894" arrivalPos="random" modes="public"/>
    </person>
    <person id="person1235" depart="18339.32" departPos="random">
        <personTrip from="14576" to="-14596" arrivalPos="random" modes="public"/>
    </person>
    <person id="person530" depart="18400.58" departPos="random">
        <personTrip from="78747" to="5448" arrivalPos="random" modes="public"/>
    </person>
    <person id="person853" depart="18427.29" departPos="random">
        <personTrip from="10131" to="-11872" arrivalPos="random" modes="public"/>
    </person>
    <person id="person1709" depart="18433.06" departPos="random">
        <personTrip from="20894" to="22164" arrivalPos="random" modes="public"/>
    </person>
    <person id="person114" depart="18503.27" departPos="random">
        <personTrip from="15182" to="13811" arrivalPos="random" modes="public"/>
    </person>
    <person id="person278" depart="18515.99" departPos="random">
        <personTrip from="-28699" to="-28546" arrivalPos="random" modes="public"/>
    </person>
    <person id="person752" depart="18535.55" departPos="random">
        <personTrip from="-5325" to="-13882" arrivalPos="random" modes="public"/>
    </person>
    <person id="person1360" depart="18545.86" departPos="random">
        <personTrip from="35118" to="-35781" arrivalPos="random" modes="public"/>
    </person>
    <person id="person1236" depart="18551.04" departPos="random">
        <personTrip from="-14528" to="-14595" arrivalPos="random" modes="public"/>
    </person>
    <person id="person1562" depart="18624.82" departPos="random">
        <personTrip from="-16222" to="17598" arrivalPos="random" modes="public"/>
    </person>
    <person id="person63" depart="18629.13" departPos="random">
        <personTrip from="-24540" to="28219" arrivalPos="random" modes="public"/>
    </person>
    <person id="person771" depart="18648.36" departPos="random">
        <personTrip from="5520" to="5518" arrivalPos="random" modes="public"/>
    </person>
    <person id="person468" depart="18667.39" departPos="random">
        <personTrip from="-5640" to="311" arrivalPos="random" modes="public"/>
    </person>
    <person id="person972" depart="18691.77" departPos="random">
        <personTrip from="-10717" to="13208" arrivalPos="random" modes="public"/>
    </person>
    <person id="person1005" depart="18734.20" departPos="random">
        <personTrip from="-3975" to="-3863" arrivalPos="random" modes="public"/>
    </person>
    <person id="person820" depart="18778.96" departPos="random">
        <personTrip from="12513" to="-1051" arrivalPos="random" modes="public"/>
    </person>
    <person id="person1112" depart="18878.75" departPos="random">
        <personTrip from="14868" to="-2937" arrivalPos="random" modes="public"/>
    </person>
    <person id="person1782" depart="18879.20" departPos="random">
        <personTrip from="-20891" to="22099" arrivalPos="random" modes="public"/>
    </person>
    <person id="person165" depart="19052.57" departPos="random">
        <personTrip from="362" to="33128" arrivalPos="random" modes="public"/>
    </person>
    <person id="person1637" depart="19067.95" departPos="random">
        <personTrip from="-26943" to="17217" arrivalPos="random" modes="public"/>
    </person>
    <person id="person1200" depart="19074.79" departPos="random">
        <personTrip from="-14500" to="14673" arrivalPos="random" modes="public"/>
    </person>
    <person id="person892" depart="19075.03" departPos="random">
        <personTrip from="-13200" to="-538" arrivalPos="random" modes="public"/>
    </person>
    <person id="person603" depart="19095.71" departPos="random">
        <personTrip from="-5630" to="-14667" arrivalPos="random" modes="public"/>
    </person>
    <person id="person342" depart="19135.93" departPos="random">
        <personTrip from="2294" to="-9285" arrivalPos="random" modes="public"/>
    </person>
    <person id="person866" depart="19139.83" departPos="random">
        <personTrip from="7921" to="7941" arrivalPos="random" modes="public"/>
    </person>
    <person id="person1110" depart="19152.71" departPos="random">
        <personTrip from="14884" to="-2972" arrivalPos="random" modes="public"/>
    </person>
    <person id="person1176" depart="19195.75" departPos="random">
        <personTrip from="-14530" to="-818" arrivalPos="random" modes="public"/>
    </person>
    <person id="person1686" depart="19208.64" departPos="random">
        <personTrip from="26368" to="-26339" arrivalPos="random" modes="public"/>
    </person>
    <person id="person1732" depart="19228.13" departPos="random">
        <personTrip from="22500" to="-22273" arrivalPos="random" modes="public"/>
    </person>
    <person id="person1426" depart="19232.15" departPos="random">
        <personTrip from="-609" to="33129" arrivalPos="random" modes="public"/>
    </person>
    <person id="person1589" depart="19341.40" departPos="random">
        <personTrip from="31351" to="-25591" arrivalPos="random" modes="public"/>
    </person>
    <person id="person1475" depart="19371.85" departPos="random">
        <personTrip from="27146" to="30289" arrivalPos="random" modes="public"/>
    </person>
    <person id="person715" depart="19405.96" departPos="random">
        <personTrip from="5569" to="5630" arrivalPos="random" modes="public"/>
    </person>
    <person id="person599" depart="19487.18" departPos="random">
        <personTrip from="2065" to="-14542" arrivalPos="random" modes="public"/>
    </person>
    <person id="person1037" depart="19489.45" departPos="random">
        <personTrip from="-13151" to="-3855" arrivalPos="random" modes="public"/>
    </person>
    <person id="person1641" depart="19506.57" departPos="random">
        <personTrip from="16925" to="-16941" arrivalPos="random" modes="public"/>
    </person>
    <person id="person59" depart="19515.84" departPos="random">
        <personTrip from="-28156" to="-28113" arrivalPos="random" modes="public"/>
    </person>
    <person id="person1074" depart="19525.97" departPos="random">
        <personTrip from="3834" to="4048" arrivalPos="random" modes="public"/>
    </person>
    <person id="person161" depart="19534.27" departPos="random">
        <personTrip from="333" to="-33126" arrivalPos="random" modes="public"/>
    </person>
    <person id="person748" depart="19590.08" departPos="random">
        <personTrip from="-13576" to="-5520" arrivalPos="random" modes="public"/>
    </person>
    <person id="person822" depart="19751.93" departPos="random">
        <personTrip from="9972" to="12506" arrivalPos="random" modes="public"/>
    </person>
    <person id="person484" depart="19759.83" departPos="random">
        <personTrip from="5586" to="-1188" arrivalPos="random" modes="public"/>
    </person>
    <person id="person1290" depart="19809.83" departPos="random">
        <personTrip from="26168" to="17190" arrivalPos="random" modes="public"/>
    </person>
    <person id="person4" depart="19907.60" departPos="random">
        <personTrip from="-1942" to="12958" arrivalPos="random" modes="public"/>
    </person>
    <person id="person80" depart="19946.34" departPos="random">
        <personTrip from="-28107" to="-24545" arrivalPos="random" modes="public"/>
    </person>
    <person id="person1548" depart="19947.19" departPos="random">
        <personTrip from="-31353" to="-31299" arrivalPos="random" modes="public"/>
    </person>
    <person id="person1344" depart="19949.35" departPos="random">
        <personTrip from="35204" to="35900" arrivalPos="random" modes="public"/>
    </person>
    <person id="person1342" depart="20014.73" departPos="random">
        <personTrip from="35908" to="34533" arrivalPos="random" modes="public"/>
    </person>
    <person id="person470" depart="20023.40" departPos="random">
        <personTrip from="-5641" to="1673" arrivalPos="random" modes="public"/>
    </person>
    <person id="person1523" depart="20077.44" departPos="random">
        <personTrip from="26933" to="16567" arrivalPos="random" modes="public"/>
    </person>
    <person id="person141" depart="20104.36" departPos="random">
        <personTrip from="-78736" to="33130" arrivalPos="random" modes="public"/>
    </person>
    <person id="person868" depart="20120.30" departPos="random">
        <personTrip from="7896" to="-7990" arrivalPos="random" modes="public"/>
    </person>
    <person id="person1170" depart="20165.86" departPos="random">
        <personTrip from="1187" to="-13881" arrivalPos="random" modes="public"/>
    </person>
    <person id="person613" depart="20177.37" departPos="random">
        <personTrip from="-5629" to="1687" arrivalPos="random" modes="public"/>
    </person>
    <person id="person372" depart="20191.60" departPos="random">
        <personTrip from="-4775" to="5627" arrivalPos="random" modes="public"/>
    </person>
    <person id="person697" depart="20212.85" departPos="random">
        <personTrip from="-5428" to="-5315" arrivalPos="random" modes="public"/>
    </person>
    <person id="person157" depart="20268.27" departPos="random">
        <personTrip from="25289" to="-29832" arrivalPos="random" modes="public"/>
    </person>
    <person id="person1356" depart="20271.98" departPos="random">
        <personTrip from="35208" to="-35976" arrivalPos="random" modes="public"/>
    </person>
    <person id="person203" depart="20275.28" departPos="random">
        <personTrip from="25128" to="-1536" arrivalPos="random" modes="public"/>
    </person>
    <person id="person1697" depart="20379.05" departPos="random">
        <personTrip from="17217" to="26860" arrivalPos="random" modes="public"/>
    </person>
    <person id="person882" depart="20421.58" departPos="random">
        <personTrip from="13199" to="-4232" arrivalPos="random" modes="public"/>
    </person>
    <person id="person98" depart="20476.66" departPos="random">
        <personTrip from="14407" to="-13960" arrivalPos="random" modes="public"/>
    </person>
    <person id="person1212" depart="20476.74" departPos="random">
        <personTrip from="14544" to="-1668" arrivalPos="random" modes="public"/>
    </person>
    <person id="person1018" depart="20499.07" departPos="random">
        <personTrip from="3993" to="-13153" arrivalPos="random" modes="public"/>
    </person>
    <person id="person871" depart="20532.01" departPos="random">
        <personTrip from="-7807" to="8005" arrivalPos="random" modes="public"/>
    </person>
    <person id="person1146" depart="20589.46" departPos="random">
        <personTrip from="11671" to="5606" arrivalPos="random" modes="public"/>
    </person>
    <person id="person404" depart="20597.17" departPos="random">
        <personTrip from="6514" to="6511" arrivalPos="random" modes="public"/>
    </person>
    <person id="person1393" depart="20641.70" departPos="random">
        <personTrip from="-13032" to="8759" arrivalPos="random" modes="public"/>
    </person>
    <person id="person378" depart="20699.34" departPos="random">
        <personTrip from="-4809" to="5811" arrivalPos="random" modes="public"/>
    </person>
    <person id="person1157" depart="20702.77" departPos="random">
        <personTrip from="-15060" to="-819" arrivalPos="random" modes="public"/>
    </person>
    <person id="person664" depart="20714.84" departPos="random">
        <personTrip from="5590" to="13589" arrivalPos="random" modes="public"/>
    </person>
    <person id="person1274" depart="20722.48" departPos="random">
        <personTrip from="-26204" to="-17199" arrivalPos="random" modes="public"/>
    </person>
    <person id="person1295" depart="20737.40" departPos="random">
        <personTrip from="17199" to="30493" arrivalPos="random" modes="public"/>
    </person>
    <person id="person1353" depart="20751.15" departPos="random">
        <personTrip from="-35889" to="-35905" arrivalPos="random" modes="public"/>
    </person>
    <person id="person1663" depart="20788.54" departPos="random">
        <personTrip from="30034" to="30276" arrivalPos="random" modes="public"/>
    </person>
    <person id="person679" depart="20859.63" departPos="random">
        <personTrip from="5500" to="-5501" arrivalPos="random" modes="public"/>
    </person>
    <person id="person30" depart="20863.84" departPos="random">
        <personTrip from="12888" to="-8103" arrivalPos="random" modes="public"/>
    </person>
    <person id="person1234" depart="20879.75" departPos="random">
        <personTrip from="14422" to="-2707" arrivalPos="random" modes="public"/>
    </person>
    <person id="person506" depart="21034.76" departPos="random">
        <personTrip from="317" to="5520" arrivalPos="random" modes="public"/>
    </person>
    <person id="person1634" depart="21050.53" departPos="random">
        <personTrip from="-26289" to="-30034" arrivalPos="random" modes="public"/>
    </person>
    <person id="person37" depart="21073.54" departPos="random">
        <personTrip from="12887" to="8116" arrivalPos="random" modes="public"/>
    </person>
    <person id="person1232" depart="21145.63" departPos="random">
        <personTrip from="1689" to="14462" arrivalPos="random" modes="public"/>
    </person>
    <person id="person1099" depart="21154.99" departPos="random">
        <personTrip from="2336" to="2976" arrivalPos="random" modes="public"/>
    </person>
    <person id="person826" depart="21219.30" departPos="random">
        <personTrip from="-3400" to="9973" arrivalPos="random" modes="public"/>
    </person>
    <person id="person1766" depart="21225.48" departPos="random">
        <personTrip from="-16366" to="-16380" arrivalPos="random" modes="public"/>
    </person>
    <person id="person1682" depart="21281.54" departPos="random">
        <personTrip from="-16632" to="30495" arrivalPos="random" modes="public"/>
    </person>
    <person id="person1072" depart="21282.63" departPos="random">
        <personTrip from="3827" to="3911" arrivalPos="random" modes="public"/>
    </person>
    <person id="person1325" depart="21287.22" departPos="random">
        <personTrip from="-35979" to="35173" arrivalPos="random" modes="public"/>
    </person>
    <person id="person241" depart="21373.96" departPos="random">
        <personTrip from="-24928" to="11391" arrivalPos="random" modes="public"/>
    </person>
    <person id="person691" depart="21393.32" departPos="random">
        <personTrip from="5358" to="5509" arrivalPos="random" modes="public"/>
    </person>
    <person id="person274" depart="21530.78" departPos="random">
        <personTrip from="28795" to="-28472" arrivalPos="random" modes="public"/>
    </person>
    <person id="person593" depart="21576.59" departPos="random">
        <personTrip from="11312" to="-5460" arrivalPos="random" modes="public"/>
    </person>
    <person id="person1271" depart="21620.68" departPos="random">
        <personTrip from="29855" to="15890" arrivalPos="random" modes="public"/>
    </person>
    <person id="person540" depart="21683.63" departPos="random">
        <personTrip from="-5608" to="2538" arrivalPos="random" modes="public"/>
    </person>
    <person id="person284" depart="21702.24" departPos="random">
        <personTrip from="-28734" to="-30803" arrivalPos="random" modes="public"/>
    </person>
    <person id="person1761" depart="21730.26" departPos="random">
        <personTrip from="20267" to="17445" arrivalPos="random" modes="public"/>
    </person>
    <person id="person309" depart="21741.24" departPos="random">
        <personTrip from="-1443" to="-9198" arrivalPos="random" modes="public"/>
    </person>
    <person id="person442" depart="21747.93" departPos="random">
        <personTrip from="6690" to="6821" arrivalPos="random" modes="public"/>
    </person>
    <person id="person1458" depart="21808.14" departPos="random">
        <personTrip from="-9820" to="-33126" arrivalPos="random" modes="public"/>
    </person>
    <person id="person208" depart="21816.67" departPos="random">
        <personTrip from="-30407" to="24830" arrivalPos="random" modes="public"/>
    </person>
    <person id="person1402" depart="21817.90" departPos="random">
        <personTrip from="-12227" to="-8755" arrivalPos="random" modes="public"/>
    </person>
    <person id="person637" depart="21901.05" departPos="random">
        <personTrip from="11313" to="14538" arrivalPos="random" modes="public"/>
    </person>
    <person id="person695" depart="21903.84" departPos="random">
        <personTrip from="-5487" to="-5365" arrivalPos="random" modes="public"/>
    </person>
    <person id="person635" depart="21975.77" departPos="random">
        <personTrip from="1676" to="14678" arrivalPos="random" modes="public"/>
    </person>
    <person id="person1108" depart="21980.96" departPos="random">
        <personTrip from="14887" to="1723" arrivalPos="random" modes="public"/>
    </person>
    <person id="person999" depart="22069.77" departPos="random">
        <personTrip from="10669" to="13185" arrivalPos="random" modes="public"/>
    </person>
    <person id="person273" depart="22071.44" departPos="random">
        <personTrip from="-28687" to="-28550" arrivalPos="random" modes="public"/>
    </person>
    <person id="person1216" depart="22213.19" departPos="random">
        <personTrip from="1684" to="14642" arrivalPos="random" modes="public"/>
    </person>
    <person id="person1695" depart="22245.86" departPos="random">
        <personTrip from="26429" to="17190" arrivalPos="random" modes="public"/>
    </person>
    <person id="person894" depart="22264.79" departPos="random">
        <personTrip from="4158" to="14773" arrivalPos="random" modes="public"/>
    </person>
    <person id="person1657" depart="22302.39" departPos="random">
        <personTrip from="-16977" to="30492" arrivalPos="random" modes="public"/>
    </person>
    <person id="person1579" depart="22308.24" departPos="random">
        <personTrip from="-30353" to="31314" arrivalPos="random" modes="public"/>
    </person>
    <person id="person228" depart="22334.21" departPos="random">
        <personTrip from="31821" to="-31591" arrivalPos="random" modes="public"/>
    </person>
    <person id="person1357" depart="22334.95" departPos="random">
        <personTrip from="36648" to="35899" arrivalPos="random" modes="public"/>
    </person>
    <person id="person1139" depart="22374.66" departPos="random">
        <personTrip from="-14422" to="5586" arrivalPos="random" modes="public"/>
    </person>
    <person id="person8" depart="22414.18" departPos="random">
        <personTrip from="-1935" to="1411" arrivalPos="random" modes="public"/>
    </person>
    <person id="person1694" depart="22475.02" departPos="random">
        <personTrip from="17226" to="-30261" arrivalPos="random" modes="public"/>
    </person>
    <person id="person300" depart="22535.90" departPos="random">
        <personTrip from="8974" to="-9238" arrivalPos="random" modes="public"/>
    </person>
    <person id="person1583" depart="22542.82" departPos="random">
        <personTrip from="-26742" to="-32487" arrivalPos="random" modes="public"/>
    </person>
    <person id="person125" depart="22604.36" departPos="random">
        <personTrip from="-13632" to="-13631" arrivalPos="random" modes="public"/>
    </person>
    <person id="person370" depart="22726.87" departPos="random">
        <personTrip from="-4709" to="-5618" arrivalPos="random" modes="public"/>
    </person>
    <person id="person675" depart="22740.94" departPos="random">
        <personTrip from="-5390" to="-5519" arrivalPos="random" modes="public"/>
    </person>
    <person id="person227" depart="22745.60" departPos="random">
        <personTrip from="-24928" to="2467" arrivalPos="random" modes="public"/>
    </person>
    <person id="person919" depart="22843.10" departPos="random">
        <personTrip from="4135" to="14775" arrivalPos="random" modes="public"/>
    </person>
    <person id="person1688" depart="22845.52" departPos="random">
        <personTrip from="-17201" to="16728" arrivalPos="random" modes="public"/>
    </person>
    <person id="person685" depart="22850.98" departPos="random">
        <personTrip from="-5336" to="5559" arrivalPos="random" modes="public"/>
    </person>
    <person id="person1511" depart="22855.45" departPos="random">
        <personTrip from="21949" to="-31063" arrivalPos="random" modes="public"/>
    </person>
    <person id="person1404" depart="23011.68" departPos="random">
        <personTrip from="2555" to="-8744" arrivalPos="random" modes="public"/>
    </person>
    <person id="person299" depart="23014.22" departPos="random">
        <personTrip from="9424" to="14194" arrivalPos="random" modes="public"/>
    </person>
    <person id="person390" depart="23045.77" departPos="random">
        <personTrip from="-4706" to="-5796" arrivalPos="random" modes="public"/>
    </person>
    <person id="person1707" depart="23102.72" departPos="random">
        <personTrip from="-21459" to="22155" arrivalPos="random" modes="public"/>
    </person>
    <person id="person987" depart="23102.80" departPos="random">
        <personTrip from="-4051" to="3925" arrivalPos="random" modes="public"/>
    </person>
    <person id="person791" depart="23112.19" departPos="random">
        <personTrip from="3497" to="12506" arrivalPos="random" modes="public"/>
    </person>
    <person id="person130" depart="23131.89" departPos="random">
        <personTrip from="2362" to="2216" arrivalPos="random" modes="public"/>
    </person>
    <person id="person1485" depart="23155.36" departPos="random">
        <personTrip from="27084" to="-17240" arrivalPos="random" modes="public"/>
    </person>
    <person id="person1425" depart="23199.01" departPos="random">
        <personTrip from="-33140" to="33127" arrivalPos="random" modes="public"/>
    </person>
    <person id="person317" depart="23216.98" departPos="random">
        <personTrip from="1473" to="14190" arrivalPos="random" modes="public"/>
    </person>
    <person id="person17" depart="23245.72" departPos="random">
        <personTrip from="-1943" to="-13023" arrivalPos="random" modes="public"/>
    </person>
    <person id="person44" depart="23263.86" departPos="random">
        <personTrip from="28036" to="-28058" arrivalPos="random" modes="public"/>
    </person>
    <person id="person385" depart="23300.97" departPos="random">
        <personTrip from="4756" to="-5656" arrivalPos="random" modes="public"/>
    </person>
    <person id="person295" depart="23341.01" departPos="random">
        <personTrip from="9246" to="-9326" arrivalPos="random" modes="public"/>
    </person>
    <person id="person1298" depart="23403.78" departPos="random">
        <personTrip from="-26159" to="16680" arrivalPos="random" modes="public"/>
    </person>
    <person id="person971" depart="23621.22" departPos="random">
        <personTrip from="4052" to="-4052" arrivalPos="random" modes="public"/>
    </person>
    <person id="person631" depart="23626.63" departPos="random">
        <personTrip from="5580" to="-14558" arrivalPos="random" modes="public"/>
    </person>
    <person id="person168" depart="23691.45" departPos="random">
        <personTrip from="-13665" to="-33129" arrivalPos="random" modes="public"/>
    </person>
    <person id="person976" depart="23738.02" departPos="random">
        <personTrip from="4179" to="13224" arrivalPos="random" modes="public"/>
    </person>
    <person id="person1243" depart="23751.64" departPos="random">
        <personTrip from="-2707" to="1188" arrivalPos="random" modes="public"/>
    </person>
    <person id="person1172" depart="23808.18" departPos="random">
        <personTrip from="1637" to="5629" arrivalPos="random" modes="public"/>
    </person>
    <person id="person1684" depart="23811.05" departPos="random">
        <personTrip from="-26429" to="30495" arrivalPos="random" modes="public"/>
    </person>
    <person id="person1574" depart="23877.80" departPos="random">
        <personTrip from="-27082" to="-17890" arrivalPos="random" modes="public"/>
    </person>
    <person id="person626" depart="23926.49" departPos="random">
        <personTrip from="1687" to="11644" arrivalPos="random" modes="public"/>
    </person>
    <person id="person672" depart="23951.57" departPos="random">
        <personTrip from="5312" to="-5312" arrivalPos="random" modes="public"/>
    </person>
    <person id="person584" depart="24016.32" departPos="random">
        <personTrip from="-1687" to="-11113" arrivalPos="random" modes="public"/>
    </person>
    <person id="person988" depart="24109.26" departPos="random">
        <personTrip from="13155" to="-3844" arrivalPos="random" modes="public"/>
    </person>
    <person id="person1339" depart="24155.50" departPos="random">
        <personTrip from="-34760" to="-35983" arrivalPos="random" modes="public"/>
    </person>
    <person id="person604" depart="24171.98" departPos="random">
        <personTrip from="1186" to="78748" arrivalPos="random" modes="public"/>
    </person>
    <person id="person1700" depart="24173.22" departPos="random">
        <personTrip from="-16941" to="-30492" arrivalPos="random" modes="public"/>
    </person>
    <person id="person1332" depart="24189.47" departPos="random">
        <personTrip from="34485" to="34496" arrivalPos="random" modes="public"/>
    </person>
    <person id="person494" depart="24218.86" departPos="random">
        <personTrip from="1189" to="2066" arrivalPos="random" modes="public"/>
    </person>
    <person id="person1416" depart="24218.97" departPos="random">
        <personTrip from="414" to="8734" arrivalPos="random" modes="public"/>
    </person>
    <person id="person1555" depart="24274.66" departPos="random">
        <personTrip from="17119" to="-16589" arrivalPos="random" modes="public"/>
    </person>
    <person id="person510" depart="24276.79" departPos="random">
        <personTrip from="-5609" to="1185" arrivalPos="random" modes="public"/>
    </person>
    <person id="person742" depart="24373.42" departPos="random">
        <personTrip from="13882" to="-5482" arrivalPos="random" modes="public"/>
    </person>
    <person id="person500" depart="24432.08" departPos="random">
        <personTrip from="1673" to="-5612" arrivalPos="random" modes="public"/>
    </person>
    <person id="person1124" depart="24439.73" departPos="random">
        <personTrip from="-12376" to="-14870" arrivalPos="random" modes="public"/>
    </person>