<?xml version="1.0" encoding="UTF-8"?>

<!-- generated on 11/05/20 15:37:30 by Eclipse SUMO duarouter Version 1.6.0
<configuration xmlns:xsi="http://www.w3.org/2001/XMLSchema-instance" xsi:noNamespaceSchemaLocation="http://sumo.dlr.de/xsd/duarouterConfiguration.xsd">

    <input>
        <net-file value="Chattanooga_SUMO_Network.net.xml"/>
        <additional-files value="busStopsCARTA.add.xml,vehtype.add.xml"/>
        <route-files value="BusLines.trips.xml"/>
    </input>

    <output>
        <output-file value="Bus.rou.xml"/>
        <alternatives-output value="Bus.rou.alt.xml"/>
    </output>

</configuration>
-->

<routes xmlns:xsi="http://www.w3.org/2001/XMLSchema-instance" xsi:noNamespaceSchemaLocation="http://sumo.dlr.de/xsd/routes_file.xsd">
    <vType id="BUS" length="8.00" minGap="3.00" maxSpeed="65.00" guiShape="bus" personCapacity="32" accel="1.2" decel="4" sigma="0.5"/>
    <vehicle id="149213010" type="BUS" depart="31860.00" departPos="stop" color="yellow">
        <route edges="-9282 2036 2288 2291 2292 2293 2035 1695 -38553 -2007 2007 38553 -38553 -2007 -78766 -78769 -78768 -78830 -1025 -1024 -694 345 78763 78836 -78835 -13636 9476 9455 13630 13637 -9383 -9385 -9387 -38638 -2074 -2073 -1480 -1489 gneE48 -1510 -1524 gneE33 -1540 -16484 -17310 -17309 -16503 -16513 -16515 -16517 -17302 -17301 -16532 -17166 -17165 -16542 -16552 -16560 -17160 -17159 -16577 -17162 -17161 -16586 -17274 -17273 -17272 -17271 -16596 -17164 -17163 -16616 -16625 26208 26165 26135 26097 26068 -16624 -17110 -17109 -17261 -17260 -16678 -16684 -17298 -17297 -16716 -16726 -16735 -16919 -16747 -16751 -16754 -27173 -30950 -30949 -30948 gneE2 gneE3 gneE4 gneE5 gneE6 gneE7 gneE8 gneE9 -27388 -27463 -27520 -27592 -29060 -29085 -29140 -29208 -29214 -29235 -29284 -29298 -29326 -29344 -29385 -29418 -29452 -29461 -29489 -29527 -29568 -29576 -29619 -29674 -29696 -29712 -29741 -29764 29763 29925 29669 -29660"/>
        <stop busStop="busStop_-9282_0_354" duration="2.00"/>
        <stop busStop="busStop_2007_0_505" duration="2.00"/>
        <stop busStop="busStop_-78835_0_784" duration="2.00"/>
        <stop busStop="busStop_9455_0_284" duration="2.00"/>
        <stop busStop="busStop_13630_0_285" duration="2.00"/>
        <stop busStop="busStop_-9383_0_286" duration="2.00"/>
        <stop busStop="busStop_-9385_0_287" duration="2.00"/>
        <stop busStop="busStop_-2074_0_1351" duration="2.00"/>
        <stop busStop="busStop_-1489_0_12" duration="2.00"/>
        <stop busStop="busStop_gneE48_0_1555" duration="2.00"/>
        <stop busStop="busStop_-1510_0_1579" duration="2.00"/>
        <stop busStop="busStop_-1524_0_1354" duration="2.00"/>
        <stop busStop="busStop_-1540_0_17" duration="2.00"/>
        <stop busStop="busStop_-17310_0_742" duration="2.00"/>
        <stop busStop="busStop_-17309_0_18" duration="2.00"/>
        <stop busStop="busStop_-16503_0_19" duration="2.00"/>
        <stop busStop="busStop_-16517_0_1557" duration="2.00"/>
        <stop busStop="busStop_-17301_0_1357" duration="2.00"/>
        <stop busStop="busStop_-16532_1_21" duration="2.00"/>
        <stop busStop="busStop_-16542_0_22" duration="2.00"/>
        <stop busStop="busStop_-16560_0_23" duration="2.00"/>
        <stop busStop="busStop_-17159_0_24" duration="2.00"/>
        <stop busStop="busStop_-17162_0_25" duration="2.00"/>
        <stop busStop="busStop_-17163_0_26" duration="2.00"/>
        <stop busStop="busStop_-16616_0_27" duration="2.00"/>
        <stop busStop="busStop_-16625_0_28" duration="2.00"/>
        <stop busStop="busStop_gneE4_0_44" duration="2.00"/>
        <stop busStop="busStop_-29660_0_95" duration="2.00"/>
    </vehicle>
    <vehicle id="149214010" type="BUS" depart="36600.00" departPos="stop" color="yellow">
        <route edges="-2074 -2073 -1480 -1489 gneE48 -1510 -1524 gneE33 -1540 -16484 -17310 -17309 -16503 -16513 -16515 -16517 -17302 -17301 -16532 -17166 -17165 -16542 -16552 -16560 -17160 -17159 -16577 -17162 -17161 -16586 -17274 -17273 -17272 -17271 -16596 -17164 -17163 -16616 -16625 26208 26165 26135 26097 26068 -16624 -17110 -17109 -17261 -17260 -16678 -16684 -17298 -17297 -16716 -16726 -16735 -16919 -16747 -16751 -16754 -27173 -30950 -30949 -30948 gneE2 gneE3 gneE4 gneE5 gneE6 gneE7 gneE8 gneE9 -27388 -27463 -27520 -27592 -29060 -29085 -29140 -29208 -29214 -29235 -29284 -29298 -29326 -29344 -29385 -29418 -29452 -29461 -29489 -29527 -29568 -29576 -29619 -29674 -29696 -29712 -29741 -29764 29763 29925 29669 -29660"/>
        <stop busStop="busStop_-2074_0_1351" duration="2.00"/>
        <stop busStop="busStop_-1489_0_12" duration="2.00"/>
        <stop busStop="busStop_gneE48_0_1555" duration="2.00"/>
        <stop busStop="busStop_-1510_0_1579" duration="2.00"/>
        <stop busStop="busStop_-1524_0_1354" duration="2.00"/>
        <stop busStop="busStop_-1540_0_17" duration="2.00"/>
        <stop busStop="busStop_-17310_0_742" duration="2.00"/>
        <stop busStop="busStop_-17309_0_18" duration="2.00"/>
        <stop busStop="busStop_-16503_0_19" duration="2.00"/>
        <stop busStop="busStop_-16517_0_1557" duration="2.00"/>
        <stop busStop="busStop_-17301_0_1357" duration="2.00"/>
        <stop busStop="busStop_-16532_1_21" duration="2.00"/>
        <stop busStop="busStop_-16542_0_22" duration="2.00"/>
        <stop busStop="busStop_-16560_0_23" duration="2.00"/>
        <stop busStop="busStop_-17159_0_24" duration="2.00"/>
        <stop busStop="busStop_-17162_0_25" duration="2.00"/>
        <stop busStop="busStop_-17163_0_26" duration="2.00"/>
        <stop busStop="busStop_-16616_0_27" duration="2.00"/>
        <stop busStop="busStop_-16625_0_28" duration="2.00"/>
        <stop busStop="busStop_gneE4_0_44" duration="2.00"/>
        <stop busStop="busStop_-29660_0_95" duration="2.00"/>
    </vehicle>
    <vehicle id="149215010" type="BUS" depart="40800.00" departPos="stop" color="yellow">
        <route edges="-2074 -2073 -1480 -1489 gneE48 -1510 -1524 gneE33 -1540 -16484 -17310 -17309 -16503 -16513 -16515 -16517 -17302 -17301 -16532 -17166 -17165 -16542 -16552 -16560 -17160 -17159 -16577 -17162 -17161 -16586 -17274 -17273 -17272 -17271 -16596 -17164 -17163 -16616 -16625 26208 26165 26135 26097 26068 -16624 -17110 -17109 -17261 -17260 -16678 -16684 -17298 -17297 -16716 -16726 -16735 -16919 -16747 -16751 -16754 -27173 -30950 -30949 -30948 gneE2 gneE3 gneE4 gneE5 gneE6 gneE7 gneE8 gneE9 -27388 -27463 -27520 -27592 -29060 -29085 -29140 -29208 -29214 -29235 -29284 -29298 -29326 -29344 -29385 -29418 -29452 -29461 -29489 -29527 -29568 -29576 -29619 -29674 -29696 -29712 -29741 -29764 29763 29925 29669 -29660"/>
        <stop busStop="busStop_-2074_0_1351" duration="2.00"/>
        <stop busStop="busStop_-1489_0_12" duration="2.00"/>
        <stop busStop="busStop_gneE48_0_1555" duration="2.00"/>
        <stop busStop="busStop_-1510_0_1579" duration="2.00"/>
        <stop busStop="busStop_-1524_0_1354" duration="2.00"/>
        <stop busStop="busStop_-1540_0_17" duration="2.00"/>
        <stop busStop="busStop_-17310_0_742" duration="2.00"/>
        <stop busStop="busStop_-17309_0_18" duration="2.00"/>
        <stop busStop="busStop_-16503_0_19" duration="2.00"/>
        <stop busStop="busStop_-16517_0_1557" duration="2.00"/>
        <stop busStop="busStop_-17301_0_1357" duration="2.00"/>
        <stop busStop="busStop_-16532_1_21" duration="2.00"/>
        <stop busStop="busStop_-16542_0_22" duration="2.00"/>
        <stop busStop="busStop_-16560_0_23" duration="2.00"/>
        <stop busStop="busStop_-17159_0_24" duration="2.00"/>
        <stop busStop="busStop_-17162_0_25" duration="2.00"/>
        <stop busStop="busStop_-17163_0_26" duration="2.00"/>
        <stop busStop="busStop_-16616_0_27" duration="2.00"/>
        <stop busStop="busStop_-16625_0_28" duration="2.00"/>
        <stop busStop="busStop_gneE4_0_44" duration="2.00"/>
        <stop busStop="busStop_-29660_0_95" duration="2.00"/>
    </vehicle>
    <vehicle id="149216010" type="BUS" depart="45000.00" departPos="stop" color="yellow">
        <route edges="-2074 -2073 -1480 -1489 gneE48 -1510 -1524 gneE33 -1540 -16484 -17310 -17309 -16503 -16513 -16515 -16517 -17302 -17301 -16532 -17166 -17165 -16542 -16552 -16560 -17160 -17159 -16577 -17162 -17161 -16586 -17274 -17273 -17272 -17271 -16596 -17164 -17163 -16616 -16625 26208 26165 26135 26097 26068 -16624 -17110 -17109 -17261 -17260 -16678 -16684 -17298 -17297 -16716 -16726 -16735 -16919 -16747 -16751 -16754 -27173 -30950 -30949 -30948 gneE2 gneE3 gneE4 gneE5 gneE6 gneE7 gneE8 gneE9 -27388 -27463 -27520 -27592 -29060 -29085 -29140 -29208 -29214 -29235 -29284 -29298 -29326 -29344 -29385 -29418 -29452 -29461 -29489 -29527 -29568 -29576 -29619 -29674 -29696 -29712 -29741 -29764 29763 29925 29669 -29660"/>
        <stop busStop="busStop_-2074_0_1351" duration="2.00"/>
        <stop busStop="busStop_-1489_0_12" duration="2.00"/>
        <stop busStop="busStop_gneE48_0_1555" duration="2.00"/>
        <stop busStop="busStop_-1510_0_1579" duration="2.00"/>
        <stop busStop="busStop_-1524_0_1354" duration="2.00"/>
        <stop busStop="busStop_-1540_0_17" duration="2.00"/>
        <stop busStop="busStop_-17310_0_742" duration="2.00"/>
        <stop busStop="busStop_-17309_0_18" duration="2.00"/>
        <stop busStop="busStop_-16503_0_19" duration="2.00"/>
        <stop busStop="busStop_-16517_0_1557" duration="2.00"/>
        <stop busStop="busStop_-17301_0_1357" duration="2.00"/>
        <stop busStop="busStop_-16532_1_21" duration="2.00"/>
        <stop busStop="busStop_-16542_0_22" duration="2.00"/>
        <stop busStop="busStop_-16560_0_23" duration="2.00"/>
        <stop busStop="busStop_-17159_0_24" duration="2.00"/>
        <stop busStop="busStop_-17162_0_25" duration="2.00"/>
        <stop busStop="busStop_-17163_0_26" duration="2.00"/>
        <stop busStop="busStop_-16616_0_27" duration="2.00"/>
        <stop busStop="busStop_-16625_0_28" duration="2.00"/>
        <stop busStop="busStop_gneE4_0_44" duration="2.00"/>
        <stop busStop="busStop_-29660_0_95" duration="2.00"/>
    </vehicle>
    <vehicle id="149217010" type="BUS" depart="49200.00" departPos="stop" color="yellow">
        <route edges="-2074 -2073 -1480 -1489 gneE48 -1510 -1524 gneE33 -1540 -16484 -17310 -17309 -16503 -16513 -16515 -16517 -17302 -17301 -16532 -17166 -17165 -16542 -16552 -16560 -17160 -17159 -16577 -17162 -17161 -16586 -17274 -17273 -17272 -17271 -16596 -17164 -17163 -16616 -16625 26208 26165 26135 26097 26068 -16624 -17110 -17109 -17261 -17260 -16678 -16684 -17298 -17297 -16716 -16726 -16735 -16919 -16747 -16751 -16754 -27173 -30950 -30949 -30948 gneE2 gneE3 gneE4 gneE5 gneE6 gneE7 gneE8 gneE9 -27388 -27463 -27520 -27592 -29060 -29085 -29140 -29208 -29214 -29235 -29284 -29298 -29326 -29344 -29385 -29418 -29452 -29461 -29489 -29527 -29568 -29576 -29619 -29674 -29696 -29712 -29741 -29764 29763 29925 29669 -29660"/>
        <stop busStop="busStop_-2074_0_1351" duration="2.00"/>
        <stop busStop="busStop_-1489_0_12" duration="2.00"/>
        <stop busStop="busStop_gneE48_0_1555" duration="2.00"/>
        <stop busStop="busStop_-1510_0_1579" duration="2.00"/>
        <stop busStop="busStop_-1524_0_1354" duration="2.00"/>
        <stop busStop="busStop_-1540_0_17" duration="2.00"/>
        <stop busStop="busStop_-17310_0_742" duration="2.00"/>
        <stop busStop="busStop_-17309_0_18" duration="2.00"/>
        <stop busStop="busStop_-16503_0_19" duration="2.00"/>
        <stop busStop="busStop_-16517_0_1557" duration="2.00"/>
        <stop busStop="busStop_-17301_0_1357" duration="2.00"/>
        <stop busStop="busStop_-16532_1_21" duration="2.00"/>
        <stop busStop="busStop_-16542_0_22" duration="2.00"/>
        <stop busStop="busStop_-16560_0_23" duration="2.00"/>
        <stop busStop="busStop_-17159_0_24" duration="2.00"/>
        <stop busStop="busStop_-17162_0_25" duration="2.00"/>
        <stop busStop="busStop_-17163_0_26" duration="2.00"/>
        <stop busStop="busStop_-16616_0_27" duration="2.00"/>
        <stop busStop="busStop_-16625_0_28" duration="2.00"/>
        <stop busStop="busStop_gneE4_0_44" duration="2.00"/>
        <stop busStop="busStop_-29660_0_95" duration="2.00"/>
    </vehicle>
    <vehicle id="149218010" type="BUS" depart="53400.00" departPos="stop" color="yellow">
        <route edges="-2074 -2073 -1480 -1489 gneE48 -1510 -1524 gneE33 -1540 -16484 -17310 -17309 -16503 -16513 -16515 -16517 -17302 -17301 -16532 -17166 -17165 -16542 -16552 -16560 -17160 -17159 -16577 -17162 -17161 -16586 -17274 -17273 -17272 -17271 -16596 -17164 -17163 -16616 -16625 26208 26165 26135 26097 26068 -16624 -17110 -17109 -17261 -17260 -16678 -16684 -17298 -17297 -16716 -16726 -16735 -16919 -16747 -16751 -16754 -27173 -30950 -30949 -30948 gneE2 gneE3 gneE4 gneE5 gneE6 gneE7 gneE8 gneE9 -27388 -27463 -27520 -27592 -29060 -29085 -29140 -29208 -29214 -29235 -29284 -29298 -29326 -29344 -29385 -29418 -29452 -29461 -29489 -29527 -29568 -29576 -29619 -29674 -29696 -29712 -29741 -29764 29763 29925 29669 -29660"/>
        <stop busStop="busStop_-2074_0_1351" duration="2.00"/>
        <stop busStop="busStop_-1489_0_12" duration="2.00"/>
        <stop busStop="busStop_gneE48_0_1555" duration="2.00"/>
        <stop busStop="busStop_-1510_0_1579" duration="2.00"/>
        <stop busStop="busStop_-1524_0_1354" duration="2.00"/>
        <stop busStop="busStop_-1540_0_17" duration="2.00"/>
        <stop busStop="busStop_-17310_0_742" duration="2.00"/>
        <stop busStop="busStop_-17309_0_18" duration="2.00"/>
        <stop busStop="busStop_-16503_0_19" duration="2.00"/>
        <stop busStop="busStop_-16517_0_1557" duration="2.00"/>
        <stop busStop="busStop_-17301_0_1357" duration="2.00"/>
        <stop busStop="busStop_-16532_1_21" duration="2.00"/>
        <stop busStop="busStop_-16542_0_22" duration="2.00"/>
        <stop busStop="busStop_-16560_0_23" duration="2.00"/>
        <stop busStop="busStop_-17159_0_24" duration="2.00"/>
        <stop busStop="busStop_-17162_0_25" duration="2.00"/>
        <stop busStop="busStop_-17163_0_26" duration="2.00"/>
        <stop busStop="busStop_-16616_0_27" duration="2.00"/>
        <stop busStop="busStop_-16625_0_28" duration="2.00"/>
        <stop busStop="busStop_gneE4_0_44" duration="2.00"/>
        <stop busStop="busStop_-29660_0_95" duration="2.00"/>
    </vehicle>
    <vehicle id="149219010" type="BUS" depart="57600.00" departPos="stop" color="yellow">
        <route edges="-2074 -2073 -1480 -1489 gneE48 -1510 -1524 gneE33 -1540 -16484 -17310 -17309 -16503 -16513 -16515 -16517 -17302 -17301 -16532 -17166 -17165 -16542 -16552 -16560 -17160 -17159 -16577 -17162 -17161 -16586 -17274 -17273 -17272 -17271 -16596 -17164 -17163 -16616 -16625 26208 26165 26135 26097 26068 -16624 -17110 -17109 -17261 -17260 -16678 -16684 -17298 -17297 -16716 -16726 -16735 -16919 -16747 -16751 -16754 -27173 -30950 -30949 -30948 gneE2 gneE3 gneE4 gneE5 gneE6 gneE7 gneE8 gneE9 -27388 -27463 -27520 -27592 -29060 -29085 -29140 -29208 -29214 -29235 -29284 -29298 -29326 -29344 -29385 -29418 -29452 -29461 -29489 -29527 -29568 -29576 -29619 -29674 -29696 -29712 -29741 -29764 29763 29925 29669 -29660"/>
        <stop busStop="busStop_-2074_0_1351" duration="2.00"/>
        <stop busStop="busStop_-1489_0_12" duration="2.00"/>
        <stop busStop="busStop_gneE48_0_1555" duration="2.00"/>
        <stop busStop="busStop_-1510_0_1579" duration="2.00"/>
        <stop busStop="busStop_-1524_0_1354" duration="2.00"/>
        <stop busStop="busStop_-1540_0_17" duration="2.00"/>
        <stop busStop="busStop_-17310_0_742" duration="2.00"/>
        <stop busStop="busStop_-17309_0_18" duration="2.00"/>
        <stop busStop="busStop_-16503_0_19" duration="2.00"/>
        <stop busStop="busStop_-16517_0_1557" duration="2.00"/>
        <stop busStop="busStop_-17301_0_1357" duration="2.00"/>
        <stop busStop="busStop_-16532_1_21" duration="2.00"/>
        <stop busStop="busStop_-16542_0_22" duration="2.00"/>
        <stop busStop="busStop_-16560_0_23" duration="2.00"/>
        <stop busStop="busStop_-17159_0_24" duration="2.00"/>
        <stop busStop="busStop_-17162_0_25" duration="2.00"/>
        <stop busStop="busStop_-17163_0_26" duration="2.00"/>
        <stop busStop="busStop_-16616_0_27" duration="2.00"/>
        <stop busStop="busStop_-16625_0_28" duration="2.00"/>
        <stop busStop="busStop_gneE4_0_44" duration="2.00"/>
        <stop busStop="busStop_-29660_0_95" duration="2.00"/>
    </vehicle>
    <vehicle id="149220010" type="BUS" depart="62400.00" departPos="stop" color="yellow">
        <route edges="-2074 -2073 -1480 -1489 gneE48 -1510 -1524 gneE33 -1540 -16484 -17310 -17309 -16503 -16513 -16515 -16517 -17302 -17301 -16532 -17166 -17165 -16542 -16552 -16560 -17160 -17159 -16577 -17162 -17161 -16586 -17274 -17273 -17272 -17271 -16596 -17164 -17163 -16616 -16625 26208 26165 26135 26097 26068 -16624 -17110 -17109 -17261 -17260 -16678 -16684 -17298 -17297 -16716 -16726 -16735 -16919 -16747 -16751 -16754 -27173 -30950 -30949 -30948 gneE2 gneE3 gneE4 gneE5 gneE6 gneE7 gneE8 gneE9 -27388 -27463 -27520 -27592 -29060 -29085 -29140 -29208 -29214 -29235 -29284 -29298 -29326 -29344 -29385 -29418 -29452 -29461 -29489 -29527 -29568 -29576 -29619 -29674 -29696 -29712 -29741 -29764 29763 29925 29669 -29660"/>
        <stop busStop="busStop_-2074_0_1351" duration="2.00"/>
        <stop busStop="busStop_-1489_0_12" duration="2.00"/>
        <stop busStop="busStop_gneE48_0_1555" duration="2.00"/>
        <stop busStop="busStop_-1510_0_1579" duration="2.00"/>
        <stop busStop="busStop_-1524_0_1354" duration="2.00"/>
        <stop busStop="busStop_-1540_0_17" duration="2.00"/>
        <stop busStop="busStop_-17310_0_742" duration="2.00"/>
        <stop busStop="busStop_-17309_0_18" duration="2.00"/>
        <stop busStop="busStop_-16503_0_19" duration="2.00"/>
        <stop busStop="busStop_-16517_0_1557" duration="2.00"/>
        <stop busStop="busStop_-17301_0_1357" duration="2.00"/>
        <stop busStop="busStop_-16532_1_21" duration="2.00"/>
        <stop busStop="busStop_-16542_0_22" duration="2.00"/>
        <stop busStop="busStop_-16560_0_23" duration="2.00"/>
        <stop busStop="busStop_-17159_0_24" duration="2.00"/>
        <stop busStop="busStop_-17162_0_25" duration="2.00"/>
        <stop busStop="busStop_-17163_0_26" duration="2.00"/>
        <stop busStop="busStop_-16616_0_27" duration="2.00"/>
        <stop busStop="busStop_-16625_0_28" duration="2.00"/>
        <stop busStop="busStop_gneE4_0_44" duration="2.00"/>
        <stop busStop="busStop_-29660_0_95" duration="2.00"/>
    </vehicle>
    <vehicle id="149221010" type="BUS" depart="66600.00" departPos="stop" color="yellow">
        <route edges="-2074 -2073 -1480 -1489 gneE48 -1510 -1524 gneE33 -1540 -16484 -17310 -17309 -16503 -16513 -16515 -16517 -17302 -17301 -16532 -17166 -17165 -16542 -16552 -16560 -17160 -17159 -16577 -17162 -17161 -16586 -17274 -17273 -17272 -17271 -16596 -17164 -17163 -16616 -16625 26208 26165 26135 26097 26068 -16624 -17110 -17109 -17261 -17260 -16678 -16684 -17298 -17297 -16716 -16726 -16735 -16919 -16747 -16751 -16754 -27173 -30950 -30949 -30948 gneE2 gneE3 gneE4 gneE5 gneE6 gneE7 gneE8 gneE9 -27388 -27463 -27520 -27592 -29060 -29085 -29140 -29208 -29214 -29235 -29284 -29298 -29326 -29344 -29385 -29418 -29452 -29461 -29489 -29527 -29568 -29576 -29619 -29674 -29696 -29712 -29741 -29764 29763 29925 29669 -29660"/>
        <stop busStop="busStop_-2074_0_1351" duration="2.00"/>
        <stop busStop="busStop_-1489_0_12" duration="2.00"/>
        <stop busStop="busStop_gneE48_0_1555" duration="2.00"/>
        <stop busStop="busStop_-1510_0_1579" duration="2.00"/>
        <stop busStop="busStop_-1524_0_1354" duration="2.00"/>
        <stop busStop="busStop_-1540_0_17" duration="2.00"/>
        <stop busStop="busStop_-17310_0_742" duration="2.00"/>
        <stop busStop="busStop_-17309_0_18" duration="2.00"/>
        <stop busStop="busStop_-16503_0_19" duration="2.00"/>
        <stop busStop="busStop_-16517_0_1557" duration="2.00"/>
        <stop busStop="busStop_-17301_0_1357" duration="2.00"/>
        <stop busStop="busStop_-16532_1_21" duration="2.00"/>
        <stop busStop="busStop_-16542_0_22" duration="2.00"/>
        <stop busStop="busStop_-16560_0_23" duration="2.00"/>
        <stop busStop="busStop_-17159_0_24" duration="2.00"/>
        <stop busStop="busStop_-17162_0_25" duration="2.00"/>
        <stop busStop="busStop_-17163_0_26" duration="2.00"/>
        <stop busStop="busStop_-16616_0_27" duration="2.00"/>
        <stop busStop="busStop_-16625_0_28" duration="2.00"/>
        <stop busStop="busStop_gneE4_0_44" duration="2.00"/>
        <stop busStop="busStop_-29660_0_95" duration="2.00"/>
    </vehicle>
    <vehicle id="149223010" type="BUS" depart="34200.00" departPos="stop" color="yellow">
        <route edges="-29660 -31048 -31047 29683 -29571 -29618 -29642 29641 29581 -29581 -29591 -29633 29622 29604 29508 29500 29478 29466 29443 31729 31730 31186 29290 29274 -29302 29302 29251 29210 29113 29104 29031 27643 16997 16797 17249 17250 16794 16793 16998 16999 16789 17113 17114 27361 29924 27308 27303 -27375 -27439 -30954 -30953 27463 27388 gneE2 gneE3 gneE4 gneE5 gneE6 gneE7 gneE8 gneE9 30948 30949 30950 27173 16754 16751 16747 16919 16735 -26890 -26942 -26959 -27020 17295 17296 16933 17258 17259 17342 17343 17115 17116 16625 16616 17163 17164 16596 17271 17272 17273 17274 16586 17161 17162 16577 17159 17160 16560 16552 16542 17165 17166 16532 17301 17302 16517 16515 16513 16503"/>
        <stop busStop="busStop_-29660_0_95" duration="2.00"/>
        <stop busStop="busStop_-31047_0_1891" duration="2.00"/>
        <stop busStop="busStop_29683_0_1915" duration="2.00"/>
        <stop busStop="busStop_29683_0_72" duration="2.00"/>
        <stop busStop="busStop_29683_0_1892" duration="2.00"/>
        <stop busStop="busStop_-29571_0_161" duration="2.00"/>
        <stop busStop="busStop_-29618_0_74" duration="2.00"/>
        <stop busStop="busStop_-29618_0_75" duration="2.00"/>
        <stop busStop="busStop_29641_0_158" duration="2.00"/>
        <stop busStop="busStop_29581_0_157" duration="2.00"/>
        <stop busStop="busStop_29622_0_155" duration="2.00"/>
        <stop busStop="busStop_29604_0_146" duration="2.00"/>
        <stop busStop="busStop_29604_0_81" duration="2.00"/>
        <stop busStop="busStop_29604_0_90" duration="2.00"/>
        <stop busStop="busStop_29508_0_1486" duration="2.00"/>
        <stop busStop="busStop_29500_0_1899" duration="2.00"/>
        <stop busStop="busStop_29478_0_148" duration="2.00"/>
        <stop busStop="busStop_29466_0_1731" duration="2.00"/>
        <stop busStop="busStop_29443_0_1797" duration="2.00"/>
        <stop busStop="busStop_31730_0_150" duration="2.00"/>
        <stop busStop="busStop_31186_0_151" duration="2.00"/>
        <stop busStop="busStop_29290_0_152" duration="2.00"/>
        <stop busStop="busStop_-29302_0_100" duration="2.00"/>
        <stop busStop="busStop_29031_0_103" duration="2.00"/>
        <stop busStop="busStop_27643_0_104" duration="2.00"/>
        <stop busStop="busStop_16997_0_105" duration="2.00"/>
        <stop busStop="busStop_17250_0_107" duration="2.00"/>
        <stop busStop="busStop_16794_0_108" duration="2.00"/>
        <stop busStop="busStop_16789_0_110" duration="2.00"/>
        <stop busStop="busStop_17114_0_111" duration="2.00"/>
        <stop busStop="busStop_29924_0_112" duration="2.00"/>
        <stop busStop="busStop_27303_0_113" duration="2.00"/>
        <stop busStop="busStop_-27439_0_115" duration="2.00"/>
        <stop busStop="busStop_-30953_0_116" duration="2.00"/>
        <stop busStop="busStop_-30953_0_1912" duration="2.00"/>
        <stop busStop="busStop_-30953_0_118" duration="2.00"/>
        <stop busStop="busStop_-30953_0_1913" duration="2.00"/>
        <stop busStop="busStop_gneE4_0_44" duration="2.00"/>
        <stop busStop="busStop_30948_0_1914" duration="2.00"/>
        <stop busStop="busStop_16751_0_1358" duration="2.00"/>
        <stop busStop="busStop_16747_0_1582" duration="2.00"/>
        <stop busStop="busStop_16735_0_124" duration="2.00"/>
        <stop busStop="busStop_-26890_0_125" duration="2.00"/>
        <stop busStop="busStop_-26942_0_127" duration="2.00"/>
        <stop busStop="busStop_-26942_0_128" duration="2.00"/>
        <stop busStop="busStop_-26959_0_129" duration="2.00"/>
        <stop busStop="busStop_-27020_0_130" duration="2.00"/>
        <stop busStop="busStop_17296_0_132" duration="2.00"/>
        <stop busStop="busStop_16933_0_133" duration="2.00"/>
        <stop busStop="busStop_17258_0_134" duration="2.00"/>
        <stop busStop="busStop_17116_0_136" duration="2.00"/>
        <stop busStop="busStop_17162_0_1487" duration="2.00"/>
        <stop busStop="busStop_17160_0_138" duration="2.00"/>
        <stop busStop="busStop_16552_0_139" duration="2.00"/>
        <stop busStop="busStop_16542_0_140" duration="2.00"/>
        <stop busStop="busStop_17166_0_141" duration="2.00"/>
        <stop busStop="busStop_17301_0_142" duration="2.00"/>
        <stop busStop="busStop_16517_0_143" duration="2.00"/>
        <stop busStop="busStop_16513_0_144" duration="2.00"/>
        <stop busStop="busStop_16503_0_145" duration="2.00"/>
    </vehicle>
    <vehicle id="149224010" type="BUS" depart="38400.00" departPos="stop" color="yellow">
        <route edges="-29660 -31048 -31047 29683 -29571 -29618 -29642 29641 29581 -29581 -29591 -29633 29622 29604 29508 29500 29478 29466 29443 31729 31730 31186 29290 29274 -29302 29302 29251 29210 29113 29104 29031 27643 16997 16797 17249 17250 16794 16793 16998 16999 16789 17113 17114 27361 29924 27308 27303 -27375 -27439 -30954 -30953 27463 27388 gneE2 gneE3 gneE4 gneE5 gneE6 gneE7 gneE8 gneE9 30948 30949 30950 27173 16754 16751 16747 16919 16735 -26890 -26942 -26959 -27020 17295 17296 16933 17258 17259 17342 17343 17115 17116 16625 16616 17163 17164 16596 17271 17272 17273 17274 16586 17161 17162 16577 17159 17160 16560 16552 16542 17165 17166 16532 17301 17302 16517 16515 16513 16503"/>
        <stop busStop="busStop_-29660_0_95" duration="2.00"/>
        <stop busStop="busStop_-31047_0_1891" duration="2.00"/>
        <stop busStop="busStop_29683_0_1915" duration="2.00"/>
        <stop busStop="busStop_29683_0_72" duration="2.00"/>
        <stop busStop="busStop_29683_0_1892" duration="2.00"/>
        <stop busStop="busStop_-29571_0_161" duration="2.00"/>
        <stop busStop="busStop_-29618_0_74" duration="2.00"/>
        <stop busStop="busStop_-29618_0_75" duration="2.00"/>
        <stop busStop="busStop_29641_0_158" duration="2.00"/>
        <stop busStop="busStop_29581_0_157" duration="2.00"/>
        <stop busStop="busStop_29622_0_155" duration="2.00"/>
        <stop busStop="busStop_29604_0_146" duration="2.00"/>
        <stop busStop="busStop_29604_0_81" duration="2.00"/>
        <stop busStop="busStop_29604_0_90" duration="2.00"/>
        <stop busStop="busStop_29508_0_1486" duration="2.00"/>
        <stop busStop="busStop_29500_0_1899" duration="2.00"/>
        <stop busStop="busStop_29478_0_148" duration="2.00"/>
        <stop busStop="busStop_29466_0_1731" duration="2.00"/>
        <stop busStop="busStop_29443_0_1797" duration="2.00"/>
        <stop busStop="busStop_31730_0_150" duration="2.00"/>
        <stop busStop="busStop_31186_0_151" duration="2.00"/>
        <stop busStop="busStop_29290_0_152" duration="2.00"/>
        <stop busStop="busStop_-29302_0_100" duration="2.00"/>
        <stop busStop="busStop_29031_0_103" duration="2.00"/>
        <stop busStop="busStop_27643_0_104" duration="2.00"/>
        <stop busStop="busStop_16997_0_105" duration="2.00"/>
        <stop busStop="busStop_17250_0_107" duration="2.00"/>
        <stop busStop="busStop_16794_0_108" duration="2.00"/>
        <stop busStop="busStop_16789_0_110" duration="2.00"/>
        <stop busStop="busStop_17114_0_111" duration="2.00"/>
        <stop busStop="busStop_29924_0_112" duration="2.00"/>
        <stop busStop="busStop_27303_0_113" duration="2.00"/>
        <stop busStop="busStop_-27439_0_115" duration="2.00"/>
        <stop busStop="busStop_-30953_0_116" duration="2.00"/>
        <stop busStop="busStop_-30953_0_1912" duration="2.00"/>
        <stop busStop="busStop_-30953_0_118" duration="2.00"/>
        <stop busStop="busStop_-30953_0_1913" duration="2.00"/>
        <stop busStop="busStop_gneE4_0_44" duration="2.00"/>
        <stop busStop="busStop_30948_0_1914" duration="2.00"/>
        <stop busStop="busStop_16751_0_1358" duration="2.00"/>
        <stop busStop="busStop_16747_0_1582" duration="2.00"/>
        <stop busStop="busStop_16735_0_124" duration="2.00"/>
        <stop busStop="busStop_-26890_0_125" duration="2.00"/>
        <stop busStop="busStop_-26942_0_127" duration="2.00"/>
        <stop busStop="busStop_-26942_0_128" duration="2.00"/>
        <stop busStop="busStop_-26959_0_129" duration="2.00"/>
        <stop busStop="busStop_-27020_0_130" duration="2.00"/>
        <stop busStop="busStop_17296_0_132" duration="2.00"/>
        <stop busStop="busStop_16933_0_133" duration="2.00"/>
        <stop busStop="busStop_17258_0_134" duration="2.00"/>
        <stop busStop="busStop_17116_0_136" duration="2.00"/>
        <stop busStop="busStop_17162_0_1487" duration="2.00"/>
        <stop busStop="busStop_17160_0_138" duration="2.00"/>
        <stop busStop="busStop_16552_0_139" duration="2.00"/>
        <stop busStop="busStop_16542_0_140" duration="2.00"/>