<?xml version="1.0" encoding="UTF-8"?>

<!-- generated on 12/01/20 00:49:47 by Eclipse SUMO duarouter Version 1.7.0
<configuration xmlns:xsi="http://www.w3.org/2001/XMLSchema-instance" xsi:noNamespaceSchemaLocation="http://sumo.dlr.de/xsd/duarouterConfiguration.xsd">

    <input>
        <net-file value="Chattanooga_SUMO_Network.net.xml"/>
        <additional-files value="busStopsCARTA.add.xml,vehtype.add.xml"/>
        <route-files value="BusLines0.trips.xml,persontrips.xml"/>
    </input>

    <output>
        <output-file value="Bus_person.rou.xml"/>
        <alternatives-output value="Bus_person.rou.alt.xml"/>
    </output>

    <processing>
        <unsorted-input value="true"/>
        <ptline-routing value="true"/>
    </processing>

    <report>
        <ignore-errors value="true"/>
    </report>

</configuration>
-->

<routes xmlns:xsi="http://www.w3.org/2001/XMLSchema-instance" xsi:noNamespaceSchemaLocation="http://sumo.dlr.de/xsd/routes_file.xsd">
    <person id="person361422" depart="16858.00" departPos="random">
        <walk edges="-9282" busStop="busStop_-9282_0_354"/>
        <ride busStop="busStop_-2074_0_1351" lines="Route1_trip152320020" intended="Route1_ALTON_PARK_block109_trip152320020" depart="17160.00"/>
        <walk edges="-2074" arrivalPos="50.61"/>
    </person>
    <vType id="Gillig_102" length="6.00" minGap="3.00" maxSpeed="65.00" guiShape="bus" personCapacity="30" accel="1.3" decel="4.1" sigma="0.5"/>
    <vehicle id="Route3_ENTERPRISE_SOUTH_block301_trip151733020" type="Gillig_102" depart="16860.00" departPos="stop" color="yellow" line="Route3_trip151733020">
        <route edges="-9282 2036 2288 2291 2292 2293 2035 1695 -38553 -2007 -78766 -78769 -78768 -78830 -1025 -1024 -694 345 78763 -78833 -13636 9476 9455 13630 13637 -9383 -9385 -9387 -38638 -2074 -2073 64 66 -600 -834 327 62 1472 2075 2076 2077 -1014 -2805 -9455 2639 -78835 -78761 -849 510 511 78829 78768 78769 78766 2007 38553 2008 2009 2010 2011 2012 1430 1309 1308 1303 1276 1271 1267 1265 2370 2371 2083 2372 2373 1242 1622 1241 1240 1612 -1657 -1658 -2367 -2366 -2359 -2084 -1661 -856 352 351 349 -559 -562 -526 -527 -660 -572 -574 -525 -524 53 -642 -582 -583 -584 -1678 -1708 -1707 -1295 1959 1960 1290 1289 2266 2267 1287 1285 1284 1282 1281 1280 -1288 -1293 -1611 -1304 2210"/>
        <stop busStop="busStop_-9282_0_354" arrival="16857.00" duration="3.00" until="16860.00"/>
        <stop busStop="busStop_-2074_0_1351" arrival="17397.00" duration="3.00" until="17400.00"/>
        <stop busStop="busStop_2210_0_1755" arrival="19197.00" duration="3.00" until="19200.00"/>
    </vehicle>
    <vType id="Gillig_103" length="7.00" minGap="3.00" maxSpeed="60.00" guiShape="bus" personCapacity="34" accel="1.2" decel="4.8" sigma="0.5"/>
    <vehicle id="Route4_EASTGATE_HAMILTON_PL_block409_trip152323020" type="Gillig_103" depart="16860.00" departPos="stop" color="yellow" line="Route4_trip152323020">
        <route edges="-9282 2036 2288 2291 2292 2293 2035 1695 -38553 -2007 2007 38553 -38553 -2007 -78766 -78769 -78768 -78830 -1025 -1024 -694 345 78763 78836 -78835 -13636 9476 9455 13630 13637 -9383 -9385 -9387 -38638 -2074 -2073 -1480 -1489 gneE48 -1510 -1524 gneE33 -1540 -16484 -17310 -17309 24963 17636 17637 17487 2467 -1535 -1536 -1537 -16485 -16486 -17059 -17061 -17060 -16496 -16500 -16501 -16502 -16506 -16508 -17270 -17269 -16973 -16526 -16528 -17290 -17289 -16534 -17252 -17251 -16540 -16543 -16547 -16553 -16975 -16974 -16561 -16565 -16571 -16572 16574 16570 16932 17054 17055 17096 -17095 -17094 -16159 -16160 -16165 -16161 -16164 -16163 -16162 -16599 -16600 -16607 -16609 -17098 -17097 -16615 -16620 -16634 -16641 -38555 -16654 -16657 -16660 -16670 -16694 -16710 -16717 -16722 -17100 -17099 -16733 -16736 -16737 -16743 -16744 -16749 -17102 -17101 -16757 -17148 -17147 -16759 -16760 -16766 -16769 -16770 -16772 -16773 -16774 -16775 -16778 16777 -16777 16777 16771 16979 16980 -27198 -30359 -31890 -31893 -31912 -31915 -31918 -31921 -31925 -31927 -31931 -31933 -31938 -31937 -30362 -31946 -31945 -27462 -31961 -31960 32037 32038 31986 31988 31990 -31994 31993 31985 -31965 -31963 -31962 31961 30428 30429 30427 30426 30431 32120 32224 32225 16996 17340 17341 16934 38556 17139 16705 16698 16668 16664 16643 17247 17248 16638 16630 16614 16936 16591 38559 16568 16926 17266 17303 17304 16978 17063 17064 17305 17306 17307 17308 16497 16489 16481 1529 1521 -1513 -1517 -1527 -1650 -16951 -16480 -17276 -17275 -17235 -17234 -31291 -31313 -31312 -31315 -31314 -25114 25115 78743 -30289 -30288 30288 30289"/>
        <stop busStop="busStop_-9282_0_354" arrival="16857.00" duration="3.00" until="16860.00"/>
        <stop busStop="busStop_2007_0_505" arrival="17076.00" duration="3.00" until="17079.00"/>
        <stop busStop="busStop_-78835_0_784" arrival="17241.00" duration="3.00" until="17244.00"/>
        <stop busStop="busStop_9455_0_284" arrival="17277.00" duration="3.00" until="17280.00"/>
        <stop busStop="busStop_13630_0_285" arrival="17322.00" duration="3.00" until="17325.00"/>
        <stop busStop="busStop_-9383_0_286" arrival="17355.00" duration="3.00" until="17358.00"/>
        <stop busStop="busStop_-9385_0_287" arrival="17370.00" duration="3.00" until="17373.00"/>
        <stop busStop="busStop_-2074_0_1351" arrival="17397.00" duration="3.00" until="17400.00"/>
        <stop busStop="busStop_-1489_0_12" arrival="17437.00" duration="3.00" until="17440.00"/>
        <stop busStop="busStop_gneE48_0_1555" arrival="17480.00" duration="3.00" until="17483.00"/>
        <stop busStop="busStop_-1510_0_1579" arrival="17492.00" duration="3.00" until="17495.00"/>
        <stop busStop="busStop_-1524_0_1354" arrival="17525.00" duration="3.00" until="17528.00"/>
        <stop busStop="busStop_-1540_0_17" arrival="17554.00" duration="3.00" until="17557.00"/>
        <stop busStop="busStop_-17310_0_742" arrival="17573.00" duration="3.00" until="17576.00"/>
        <stop busStop="busStop_17637_0_806" arrival="17807.00" duration="3.00" until="17810.00"/>
        <stop busStop="busStop_2467_0_1475" arrival="17869.00" duration="3.00" until="17872.00"/>
        <stop busStop="busStop_-1535_0_1474" arrival="17879.00" duration="3.00" until="17882.00"/>
        <stop busStop="busStop_-16485_0_811" arrival="17903.00" duration="3.00" until="17906.00"/>
        <stop busStop="busStop_-16486_0_812" arrival="17922.00" duration="3.00" until="17925.00"/>
        <stop busStop="busStop_-17060_0_813" arrival="17953.00" duration="3.00" until="17956.00"/>
        <stop busStop="busStop_-16500_1_814" arrival="17972.00" duration="3.00" until="17975.00"/>
        <stop busStop="busStop_-16501_0_815" arrival="17986.00" duration="3.00" until="17989.00"/>
        <stop busStop="busStop_-16502_0_816" arrival="18005.00" duration="3.00" until="18008.00"/>
        <stop busStop="busStop_-16506_0_817" arrival="18022.00" duration="3.00" until="18025.00"/>
        <stop busStop="busStop_-16508_0_818" arrival="18041.00" duration="3.00" until="18044.00"/>
        <stop busStop="busStop_-16526_0_820" arrival="18129.00" duration="3.00" until="18132.00"/>
        <stop busStop="busStop_-16528_0_821" arrival="18146.00" duration="3.00" until="18149.00"/>
        <stop busStop="busStop_-17289_0_822" arrival="18165.00" duration="3.00" until="18168.00"/>
        <stop busStop="busStop_-16534_0_823" arrival="18184.00" duration="3.00" until="18187.00"/>
        <stop busStop="busStop_-17251_0_824" arrival="18201.00" duration="3.00" until="18204.00"/>
        <stop busStop="busStop_-16540_0_825" arrival="18220.00" duration="3.00" until="18223.00"/>
        <stop busStop="busStop_-16543_0_826" arrival="18239.00" duration="3.00" until="18242.00"/>
        <stop busStop="busStop_-16547_0_827" arrival="18258.00" duration="3.00" until="18261.00"/>
        <stop busStop="busStop_-16975_1_828" arrival="18282.00" duration="3.00" until="18285.00"/>
        <stop busStop="busStop_-16974_1_829" arrival="18297.00" duration="3.00" until="18300.00"/>
        <stop busStop="busStop_-16561_0_321" arrival="18313.00" duration="3.00" until="18316.00"/>
        <stop busStop="busStop_-16565_0_322" arrival="18331.00" duration="3.00" until="18334.00"/>
        <stop busStop="busStop_-16571_0_830" arrival="18345.00" duration="3.00" until="18348.00"/>
        <stop busStop="busStop_16570_1_831" arrival="18366.00" duration="3.00" until="18369.00"/>
        <stop busStop="busStop_16932_0_832" arrival="18380.00" duration="3.00" until="18383.00"/>
        <stop busStop="busStop_-16160_0_833" arrival="18429.00" duration="3.00" until="18432.00"/>
        <stop busStop="busStop_-16599_0_835" arrival="18511.00" duration="3.00" until="18514.00"/>
        <stop busStop="busStop_-16609_0_836" arrival="18535.00" duration="3.00" until="18538.00"/>
        <stop busStop="busStop_-16615_0_837" arrival="18560.00" duration="3.00" until="18563.00"/>
        <stop busStop="busStop_-16634_0_838" arrival="18574.00" duration="3.00" until="18577.00"/>
        <stop busStop="busStop_-16641_0_839" arrival="18597.00" duration="3.00" until="18600.00"/>
        <stop busStop="busStop_-16641_0_840" arrival="18614.00" duration="3.00" until="18617.00"/>
        <stop busStop="busStop_-38555_0_841" arrival="18631.00" duration="3.00" until="18634.00"/>
        <stop busStop="busStop_-16694_0_844" arrival="18680.00" duration="3.00" until="18683.00"/>
        <stop busStop="busStop_-16710_0_845" arrival="18705.00" duration="3.00" until="18708.00"/>
        <stop busStop="busStop_-16736_0_848" arrival="18742.00" duration="3.00" until="18745.00"/>
        <stop busStop="busStop_-16743_0_849" arrival="18751.00" duration="3.00" until="18754.00"/>
        <stop busStop="busStop_-16743_0_850" arrival="18765.00" duration="3.00" until="18768.00"/>
        <stop busStop="busStop_-16749_0_851" arrival="18780.00" duration="3.00" until="18783.00"/>
        <stop busStop="busStop_-17101_0_852" arrival="18796.00" duration="3.00" until="18799.00"/>
        <stop busStop="busStop_-17147_0_854" arrival="18840.00" duration="3.00" until="18843.00"/>
        <stop busStop="busStop_-16766_0_856" arrival="18866.00" duration="3.00" until="18869.00"/>
        <stop busStop="busStop_-16770_0_857" arrival="18885.00" duration="3.00" until="18888.00"/>
        <stop busStop="busStop_-16772_0_858" arrival="18895.00" duration="3.00" until="18898.00"/>
        <stop busStop="busStop_-16774_0_859" arrival="18904.00" duration="3.00" until="18907.00"/>
        <stop busStop="busStop_16777_0_860" arrival="18929.00" duration="3.00" until="18932.00"/>
        <stop busStop="busStop_-16777_0_861" arrival="18939.00" duration="3.00" until="18942.00"/>
        <stop busStop="busStop_16980_2_1873" arrival="18968.00" duration="3.00" until="18971.00"/>
        <stop busStop="busStop_-31946_0_1849" arrival="19017.00" duration="3.00" until="19020.00"/>
        <stop busStop="busStop_-27462_0_1850" arrival="19034.00" duration="3.00" until="19037.00"/>
        <stop busStop="busStop_-31994_0_1819" arrival="19055.00" duration="3.00" until="19058.00"/>
        <stop busStop="busStop_30426_0_867" arrival="19181.00" duration="3.00" until="19184.00"/>
        <stop busStop="busStop_30431_0_868" arrival="19197.00" duration="3.00" until="19200.00"/>
        <stop busStop="busStop_32225_0_869" arrival="19285.00" duration="3.00" until="19288.00"/>
        <stop busStop="busStop_17341_2_870" arrival="19343.00" duration="3.00" until="19346.00"/>
        <stop busStop="busStop_16934_2_871" arrival="19374.00" duration="3.00" until="19377.00"/>
        <stop busStop="busStop_16705_0_872" arrival="19412.00" duration="3.00" until="19415.00"/>
        <stop busStop="busStop_16664_0_874" arrival="19555.00" duration="3.00" until="19558.00"/>
        <stop busStop="busStop_16591_0_879" arrival="19782.00" duration="3.00" until="19785.00"/>
        <stop busStop="busStop_38559_0_880" arrival="19825.00" duration="3.00" until="19828.00"/>
        <stop busStop="busStop_16568_0_881" arrival="19863.00" duration="3.00" until="19866.00"/>
        <stop busStop="busStop_17307_0_884" arrival="20095.00" duration="3.00" until="20098.00"/>
        <stop busStop="busStop_17308_0_885" arrival="20160.00" duration="3.00" until="20163.00"/>
        <stop busStop="busStop_16497_1_886" arrival="20202.00" duration="3.00" until="20205.00"/>
        <stop busStop="busStop_16489_0_887" arrival="20249.00" duration="3.00" until="20252.00"/>
        <stop busStop="busStop_1521_0_891" arrival="20361.00" duration="3.00" until="20364.00"/>
        <stop busStop="busStop_-1517_0_1875" arrival="20403.00" duration="3.00" until="20406.00"/>
        <stop busStop="busStop_-1527_1_894" arrival="20434.00" duration="3.00" until="20437.00"/>
        <stop busStop="busStop_-16951_1_1485" arrival="20468.00" duration="3.00" until="20471.00"/>
        <stop busStop="busStop_-31312_0_897" arrival="20557.00" duration="3.00" until="20560.00"/>
        <stop busStop="busStop_-31315_0_898" arrival="20584.00" duration="3.00" until="20587.00"/>
        <stop busStop="busStop_30289_0_1876" arrival="20997.00" duration="3.00" until="21000.00"/>
    </vehicle>
    <person id="person507042" depart="16860.00" departPos="random">
        <walk edges="2007" busStop="busStop_2007_0_505"/>
        <ride busStop="busStop_-1510_0_1579" lines="Route1_trip152320020" intended="Route1_ALTON_PARK_block109_trip152320020" depart="17379.00"/>
        <walk edges="-1510" arrivalPos="90.76"/>
    </person>
    <person id="person491011" depart="16960.00" departPos="random">
        <walk edges="-9383 9385 9387 -38638 -2074" busStop="busStop_-2074_0_1351"/>
        <ride busStop="busStop_-1540_0_17" lines="Route4_trip152323020" intended="Route4_EASTGATE_HAMILTON_PL_block409_trip152323020" depart="17400.00"/>
        <walk edges="-1540 16484 30078 31885 31884 -24856 24876 17637" busStop="busStop_17637_0_806"/>
        <ride busStop="busStop_-17060_0_813" lines="Route4_trip152323020" intended="Route4_EASTGATE_HAMILTON_PL_block409_trip152323020" depart="17810.00"/>
        <walk edges="-17060" arrivalPos="3.51"/>
    </person>
    <vType id="Gillig_104" length="9.00" minGap="3.00" maxSpeed="65.00" guiShape="bus" personCapacity="40" accel="1.1" decel="4.3" sigma="0.5"/>
    <vehicle id="Route1_ALTON_PARK_block109_trip152320020" type="Gillig_104" depart="17160.00" departPos="stop" color="yellow" line="Route1_trip152320020">
        <route edges="-9282 2036 2288 2291 2292 2293 2035 1695 -38553 -2007 2007 38553 -38553 -2007 -78766 -78769 -78768 -78830 -1025 -1024 -694 345 78763 78836 -78835 -13636 9476 9455 13630 13637 -9383 -9385 -9387 -38638 -2074 -2073 -1480 -1489 gneE48 -1510 -1524 gneE33 -1540 -16484 -17310 -17309 -16503 -16513 -16515 -16517 -17302 -17301 -16532 -17166 -17165 -16542 -16552 -16560 -17160 -17159 -16577 -17162 -17161 -16586 -17274 -17273 -17272 -17271 -16596 -17164 -17163 -16616 -16625 26208 26165 26135 26097 26068 -16624 -17110 -17109 -17261 -17260 -16678 -16684 -17298 -17297 -16716 -16726 -16735 -16919 -16747 -16751 -16754 -27173 -30950 -30949 -30948 gneE2 gneE3 gneE4 gneE5 gneE6 gneE7 gneE8 gneE9 -27388 -27463 -27520 -27592 -29060 -29085 -29140 -29208 -29214 -29235 -29284 -29298 -29326 -29344 -29385 -29418 -29452 -29461 -29489 -29527 -29568 -29576 -29619 -29674 -29696 -29712 -29741 -29764 29763 29925 29669 -29660"/>
        <stop busStop="busStop_-9282_0_354" arrival="17157.00" duration="3.00" until="17160.00"/>
        <stop busStop="busStop_2007_0_505" arrival="17376.00" duration="3.00" until="17379.00"/>
        <stop busStop="busStop_-78835_0_784" arrival="17541.00" duration="3.00" until="17544.00"/>
        <stop busStop="busStop_9455_0_284" arrival="17577.00" duration="3.00" until="17580.00"/>
        <stop busStop="busStop_13630_0_285" arrival="17622.00" duration="3.00" until="17625.00"/>
        <stop busStop="busStop_-9383_0_286" arrival="17655.00" duration="3.00" until="17658.00"/>
        <stop busStop="busStop_-9385_0_287" arrival="17670.00" duration="3.00" until="17673.00"/>
        <stop busStop="busStop_-2074_0_1351" arrival="17697.00" duration="3.00" until="17700.00"/>
        <stop busStop="busStop_-1489_0_12" arrival="17748.00" duration="3.00" until="17751.00"/>
        <stop busStop="busStop_gneE48_0_1555" arrival="17803.00" duration="3.00" until="17806.00"/>
        <stop busStop="busStop_-1510_0_1579" arrival="17818.00" duration="3.00" until="17821.00"/>
        <stop busStop="busStop_-1524_0_1354" arrival="17860.00" duration="3.00" until="17863.00"/>
        <stop busStop="busStop_-1540_0_17" arrival="17897.00" duration="3.00" until="17900.00"/>
        <stop busStop="busStop_-17310_0_742" arrival="17921.00" duration="3.00" until="17924.00"/>
        <stop busStop="busStop_-17309_0_18" arrival="17960.00" duration="3.00" until="17963.00"/>
        <stop busStop="busStop_-16503_0_19" arrival="18000.00" duration="3.00" until="18003.00"/>
        <stop busStop="busStop_-16517_0_1557" arrival="18051.00" duration="3.00" until="18054.00"/>
        <stop busStop="busStop_-17301_0_1357" arrival="18078.00" duration="3.00" until="18081.00"/>
        <stop busStop="busStop_-16532_1_21" arrival="18093.00" duration="3.00" until="18096.00"/>
        <stop busStop="busStop_-16542_0_22" arrival="18127.00" duration="3.00" until="18130.00"/>
        <stop busStop="busStop_-16560_0_23" arrival="18157.00" duration="3.00" until="18160.00"/>
        <stop busStop="busStop_-17159_0_24" arrival="18175.00" duration="3.00" until="18178.00"/>
        <stop busStop="busStop_-17162_0_25" arrival="18197.00" duration="3.00" until="18200.00"/>
        <stop busStop="busStop_-17163_0_26" arrival="18260.00" duration="3.00" until="18263.00"/>
        <stop busStop="busStop_-16616_0_27" arrival="18278.00" duration="3.00" until="18281.00"/>
        <stop busStop="busStop_-16625_0_28" arrival="18297.00" duration="3.00" until="18300.00"/>
        <stop busStop="busStop_gneE4_0_44" arrival="18597.00" duration="3.00" until="18600.00"/>
        <stop busStop="busStop_-29660_0_95" arrival="19497.00" duration="3.00" until="19500.00"/>
    </vehicle>
    <vehicle id="Route3_3_DOWNTOWN__block301_trip151740020" type="Gillig_104" depart="19500.00" departPos="stop" color="yellow" line="Route3_trip151740020">
        <route edges="-2074"/>
        <stop busStop="busStop_-2074_0_1351" arrival="21897.00" duration="3.00" until="21900.00"/>
    </vehicle>
    <vehicle id="Route1_DOWNTOWN_block109_trip152321020" type="Gillig_102" depart="19500.00" departPos="stop" color="yellow" line="Route1_trip152321020">
        <route edges="-29660 -31048 -31047 29683 -29571 -29618 -29642 29641 29581 -29581 -29591 -29633 29622 29604 29508 29500 29478 29466 29443 31729 31730 31186 29290 29274 -29302 29302 29251 29210 29113 29104 29031 27643 16997 16797 17249 17250 16794 16793 16998 16999 16789 17113 17114 27361 29924 27308 27303 -27375 -27439 -30954 -30953 27463 27388 gneE2 gneE3 gneE4 gneE5 gneE6 gneE7 gneE8 gneE9 30948 30949 30950 27173 16754 16751 16747 16919 16735 -26890 -26942 -26959 -27020 17295 17296 16933 17258 17259 17342 17343 17115 17116 16625 16616 17163 17164 16596 17271 17272 17273 17274 16586 17161 17162 16577 17159 17160 16560 16552 16542 17165 17166 16532 17301 17302 16517 16515 16513 16503"/>
        <stop busStop="busStop_-29660_0_95" arrival="19497.00" duration="3.00" until="19500.00"/>
        <stop busStop="busStop_-31047_0_1891" arrival="19535.00" duration="3.00" until="19538.00"/>
        <stop busStop="busStop_29683_0_1915" arrival="19554.00" duration="3.00" until="19557.00"/>
        <stop busStop="busStop_29683_0_72" arrival="19565.00" duration="3.00" until="19568.00"/>
        <stop busStop="busStop_29683_0_1892" arrival="19577.00" duration="3.00" until="19580.00"/>
        <stop busStop="busStop_-29571_0_161" arrival="19590.00" duration="3.00" until="19593.00"/>
        <stop busStop="busStop_-29618_0_74" arrival="19611.00" duration="3.00" until="19614.00"/>
        <stop busStop="busStop_-29618_0_75" arrival="19624.00" duration="3.00" until="19627.00"/>
        <stop busStop="busStop_29641_0_158" arrival="19654.00" duration="3.00" until="19657.00"/>
        <stop busStop="busStop_29581_0_157" arrival="19677.00" duration="3.00" until="19680.00"/>
        <stop busStop="busStop_29622_0_155" arrival="19756.00" duration="3.00" until="19759.00"/>
        <stop busStop="busStop_29604_0_146" arrival="19769.00" duration="3.00" until="19772.00"/>
        <stop busStop="busStop_29604_0_81" arrival="19779.00" duration="3.00" until="19782.00"/>
        <stop busStop="busStop_29604_0_90" arrival="19797.00" duration="3.00" until="19800.00"/>
        <stop busStop="busStop_29508_0_1486" arrival="19813.00" duration="3.00" until="19816.00"/>
        <stop busStop="busStop_29500_0_1899" arrival="19819.00" duration="3.00" until="19822.00"/>
        <stop busStop="busStop_29478_0_148" arrival="19837.00" duration="3.00" until="19840.00"/>
        <stop busStop="busStop_29466_0_1731" arrival="19846.00" duration="3.00" until="19849.00"/>
        <stop busStop="busStop_29443_0_1797" arrival="19865.00" duration="3.00" until="19868.00"/>
        <stop busStop="busStop_31730_0_150" arrival="19901.00" duration="3.00" until="19904.00"/>
        <stop busStop="busStop_31186_0_151" arrival="19947.00" duration="3.00" until="19950.00"/>
        <stop busStop="busStop_29290_0_152" arrival="19958.00" duration="3.00" until="19961.00"/>
        <stop busStop="busStop_-29302_0_100" arrival="19984.00" duration="3.00" until="19987.00"/>
        <stop busStop="busStop_29031_0_103" arrival="20041.00" duration="3.00" until="20044.00"/>
        <stop busStop="busStop_27643_0_104" arrival="20058.00" duration="3.00" until="20061.00"/>
        <stop busStop="busStop_16997_0_105" arrival="20069.00" duration="3.00" until="20072.00"/>
        <stop busStop="busStop_17250_0_107" arrival="20097.00" duration="3.00" until="20100.00"/>
        <stop busStop="busStop_16794_0_108" arrival="20105.00" duration="3.00" until="20108.00"/>
        <stop busStop="busStop_16789_0_110" arrival="20138.00" duration="3.00" until="20141.00"/>
        <stop busStop="busStop_17114_0_111" arrival="20152.00" duration="3.00" until="20155.00"/>
        <stop busStop="busStop_29924_0_112" arrival="20168.00" duration="3.00" until="20171.00"/>
        <stop busStop="busStop_27303_0_113" arrival="20181.00" duration="3.00" until="20184.00"/>
        <stop busStop="busStop_-27439_0_115" arrival="20210.00" duration="3.00" until="20213.00"/>
        <stop busStop="busStop_-30953_0_116" arrival="20222.00" duration="3.00" until="20225.00"/>
        <stop busStop="busStop_-30953_0_1912" arrival="20237.00" duration="3.00" until="20240.00"/>
        <stop busStop="busStop_-30953_0_118" arrival="20247.00" duration="3.00" until="20250.00"/>
        <stop busStop="busStop_-30953_0_1913" arrival="20271.00" duration="3.00" until="20274.00"/>
        <stop busStop="busStop_gneE4_0_44" arrival="20397.00" duration="3.00" until="20400.00"/>
        <stop busStop="busStop_30948_0_1914" arrival="20430.00" duration="3.00" until="20433.00"/>
        <stop busStop="busStop_16751_0_1358" arrival="20614.00" duration="3.00" until="20617.00"/>
        <stop busStop="busStop_16747_0_1582" arrival="20635.00" duration="3.00" until="20638.00"/>
        <stop busStop="busStop_16735_0_124" arrival="20663.00" duration="3.00" until="20666.00"/>
        <stop busStop="busStop_-26890_0_125" arrival="20678.00" duration="3.00" until="20681.00"/>
        <stop busStop="busStop_-26942_0_127" arrival="20718.00" duration="3.00" until="20721.00"/>
        <stop busStop="busStop_-26942_0_128" arrival="20736.00" duration="3.00" until="20739.00"/>
        <stop busStop="busStop_-26959_0_129" arrival="20755.00" duration="3.00" until="20758.00"/>
        <stop busStop="busStop_-27020_0_130" arrival="20788.00" duration="3.00" until="20791.00"/>
        <stop busStop="busStop_17296_0_132" arrival="20843.00" duration="3.00" until="20846.00"/>
        <stop busStop="busStop_16933_0_133" arrival="20874.00" duration="3.00" until="20877.00"/>
        <stop busStop="busStop_17258_0_134" arrival="20899.00" duration="3.00" until="20902.00"/>
        <stop busStop="busStop_17116_0_136" arrival="20990.00" duration="3.00" until="20993.00"/>
        <stop busStop="busStop_17162_0_1487" arrival="21091.00" duration="3.00" until="21094.00"/>
        <stop busStop="busStop_17160_0_138" arrival="21134.00" duration="3.00" until="21137.00"/>
        <stop busStop="busStop_16552_0_139" arrival="21186.00" duration="3.00" until="21189.00"/>
        <stop busStop="busStop_16542_0_140" arrival="21217.00" duration="3.00" until="21220.00"/>
        <stop busStop="busStop_17166_0_141" arrival="21244.00" duration="3.00" until="21247.00"/>
        <stop busStop="busStop_17301_0_142" arrival="21297.00" duration="3.00" until="21300.00"/>
        <stop busStop="busStop_16517_0_143" arrival="21358.00" duration="3.00" until="21361.00"/>
        <stop busStop="busStop_16513_0_144" arrival="21508.00" duration="3.00" until="21511.00"/>
        <stop busStop="busStop_16503_0_145" arrival="21597.00" duration="3.00" until="21600.00"/>
    </vehicle>
    <vType id="Gillig_101" length="8.00" minGap="3.00" maxSpeed="65.00" guiShape="bus" personCapacity="32" accel="1.2" decel="4.0" sigma="0.5"/>
    <vehicle id="Route1_ALTON_PARK_block101_trip151690020" type="Gillig_101" depart="19860.00" departPos="stop" color="yellow" line="Route1_trip151690020">
        <route edges="-9282 2036 2288 2291 2292 2293 2035 1695 -38553 -2007 2007 38553 -38553 -2007 -78766 -78769 -78768 -78830 -1025 -1024 -694 345 78763 78836 -78835 -13636 9476 9455 13630 13637 -9383 -9385 -9387 -38638 -2074 -2073 -1480 -1489 gneE48 -1510 -1524 gneE33 -1540 -16484 -17310 -17309 -16503 -16513 -16515 -16517 -17302 -17301 -16532 -17166 -17165 -16542 -16552 -16560 -17160 -17159 -16577 -17162 -17161 -16586 -17274 -17273 -17272 -17271 -16596 -17164 -17163 -16616 -16625 26208 26165 26135 26097 26068 -16624 -17110 -17109 -17261 -17260 -16678 -16684 -17298 -17297 -16716 -16726 -16735 -16919 -16747 -16751 -16754 -27173 -30950 -30949 -30948 gneE2 gneE3 gneE4 gneE5 gneE6 gneE7 gneE8 gneE9 -27388 -27463 -27520 -27592 -29060 -29085 -29140 -29208 -29214 -29235 -29284 -29298 -29326 -29344 -29385 -29418 -29452 -29461 -29489 -29527 -29568 -29576 -29619 -29674 -29696 -29712 -29741 -29764 29763 29925 29669 -29660"/>
        <stop busStop="busStop_-9282_0_354" arrival="19857.00" duration="3.00" until="19860.00"/>
        <stop busStop="busStop_2007_0_505" arrival="20076.00" duration="3.00" until="20079.00"/>
        <stop busStop="busStop_-78835_0_784" arrival="20241.00" duration="3.00" until="20244.00"/>
        <stop busStop="busStop_9455_0_284" arrival="20277.00" duration="3.00" until="20280.00"/>
        <stop busStop="busStop_13630_0_285" arrival="20322.00" duration="3.00" until="20325.00"/>
        <stop busStop="busStop_-9383_0_286" arrival="20355.00" duration="3.00" until="20358.00"/>
        <stop busStop="busStop_-9385_0_287" arrival="20370.00" duration="3.00" until="20373.00"/>
        <stop busStop="busStop_-2074_0_1351" arrival="20397.00" duration="3.00" until="20400.00"/>
        <stop busStop="busStop_-1489_0_12" arrival="20448.00" duration="3.00" until="20451.00"/>
        <stop busStop="busStop_gneE48_0_1555" arrival="20503.00" duration="3.00" until="20506.00"/>
        <stop busStop="busStop_-1510_0_1579" arrival="20518.00" duration="3.00" until="20521.00"/>
        <stop busStop="busStop_-1524_0_1354" arrival="20560.00" duration="3.00" until="20563.00"/>
        <stop busStop="busStop_-1540_0_17" arrival="20597.00" duration="3.00" until="20600.00"/>
        <stop busStop="busStop_-17310_0_742" arrival="20621.00" duration="3.00" until="20624.00"/>
        <stop busStop="busStop_-17309_0_18" arrival="20660.00" duration="3.00" until="20663.00"/>
        <stop busStop="busStop_-16503_0_19" arrival="20700.00" duration="3.00" until="20703.00"/>
        <stop busStop="busStop_-16517_0_1557" arrival="20751.00" duration="3.00" until="20754.00"/>
        <stop busStop="busStop_-17301_0_1357" arrival="20778.00" duration="3.00" until="20781.00"/>
        <stop busStop="busStop_-16532_1_21" arrival="20793.00" duration="3.00" until="20796.00"/>
        <stop busStop="busStop_-16542_0_22" arrival="20827.00" duration="3.00" until="20830.00"/>
        <stop busStop="busStop_-16560_0_23" arrival="20857.00" duration="3.00" until="20860.00"/>
        <stop busStop="busStop_-17159_0_24" arrival="20875.00" duration="3.00" until="20878.00"/>
        <stop busStop="busStop_-17162_0_25" arrival="20897.00" duration="3.00" until="20900.00"/>
        <stop busStop="busStop_-17163_0_26" arrival="20960.00" duration="3.00" until="20963.00"/>
        <stop busStop="busStop_-16616_0_27" arrival="20978.00" duration="3.00" until="20981.00"/>
        <stop busStop="busStop_-16625_0_28" arrival="20997.00" duration="3.00" until="21000.00"/>
        <stop busStop="busStop_gneE4_0_44" arrival="21297.00" duration="3.00" until="21300.00"/>
        <stop busStop="busStop_-29660_0_95" arrival="22197.00" duration="3.00" until="22200.00"/>
    </vehicle>
    <person id="person499323" depart="20860.00" departPos="random">
        <walk edges="-16485 -16486 -17059 17061 17060 -16496 -16500 -16501 -16502 16506 -16508" busStop="busStop_-16508_0_818"/>
        <ride busStop="busStop_16570_1_831" lines="Route4_trip151781020" intended="Route4_EASTGATE_HAMILTON_PL_block401_trip151781020" depart="22244.00"/>
        <walk edges="16570" arrivalPos="22.55"/>
    </person>