<routes>
	<trip id="149213010" type="BUS" depart="31860" color="1,1,0" departPos="stop">
		<stop busStop="busStop_-9282_0_354" duration="2"/>
		<stop busStop="busStop_2007_0_505" duration="2"/>
		<stop busStop="busStop_-78835_0_784" duration="2"/>
		<stop busStop="busStop_9455_0_284" duration="2"/>
		<stop busStop="busStop_13630_0_285" duration="2"/>
		<stop busStop="busStop_-9383_0_286" duration="2"/>
		<stop busStop="busStop_-9385_0_287" duration="2"/>
		<stop busStop="busStop_-2074_0_1351" duration="2"/>
		<stop busStop="busStop_-1489_0_12" duration="2"/>
		<stop busStop="busStop_gneE48_0_1555" duration="2"/>
		<stop busStop="busStop_-1510_0_1579" duration="2"/>
		<stop busStop="busStop_-1524_0_1354" duration="2"/>
		<stop busStop="busStop_-1540_0_17" duration="2"/>
		<stop busStop="busStop_-17310_0_742" duration="2"/>
		<stop busStop="busStop_-17309_0_18" duration="2"/>
		<stop busStop="busStop_-16503_0_19" duration="2"/>
		<stop busStop="busStop_-16517_0_1557" duration="2"/>
		<stop busStop="busStop_-17301_0_1357" duration="2"/>
		<stop busStop="busStop_-16532_1_21" duration="2"/>
		<stop busStop="busStop_-16542_0_22" duration="2"/>
		<stop busStop="busStop_-16560_0_23" duration="2"/>
		<stop busStop="busStop_-17159_0_24" duration="2"/>
		<stop busStop="busStop_-17162_0_25" duration="2"/>
		<stop busStop="busStop_-17163_0_26" duration="2"/>
		<stop busStop="busStop_-16616_0_27" duration="2"/>
		<stop busStop="busStop_-16625_0_28" duration="2"/>
		<stop busStop="busStop_gneE4_0_44" duration="2"/>
		<stop busStop="busStop_-29660_0_95" duration="2"/>
	</trip>
	<trip id="149214010" type="BUS" depart="36600" color="1,1,0" departPos="stop">
		<stop busStop="busStop_-2074_0_1351" duration="2"/>
		<stop busStop="busStop_-1489_0_12" duration="2"/>
		<stop busStop="busStop_gneE48_0_1555" duration="2"/>
		<stop busStop="busStop_-1510_0_1579" duration="2"/>
		<stop busStop="busStop_-1524_0_1354" duration="2"/>
		<stop busStop="busStop_-1540_0_17" duration="2"/>
		<stop busStop="busStop_-17310_0_742" duration="2"/>
		<stop busStop="busStop_-17309_0_18" duration="2"/>
		<stop busStop="busStop_-16503_0_19" duration="2"/>
		<stop busStop="busStop_-16517_0_1557" duration="2"/>
		<stop busStop="busStop_-17301_0_1357" duration="2"/>
		<stop busStop="busStop_-16532_1_21" duration="2"/>
		<stop busStop="busStop_-16542_0_22" duration="2"/>
		<stop busStop="busStop_-16560_0_23" duration="2"/>
		<stop busStop="busStop_-17159_0_24" duration="2"/>
		<stop busStop="busStop_-17162_0_25" duration="2"/>
		<stop busStop="busStop_-17163_0_26" duration="2"/>
		<stop busStop="busStop_-16616_0_27" duration="2"/>
		<stop busStop="busStop_-16625_0_28" duration="2"/>
		<stop busStop="busStop_gneE4_0_44" duration="2"/>
		<stop busStop="busStop_-29660_0_95" duration="2"/>
	</trip>
	<trip id="149215010" type="BUS" depart="40800" color="1,1,0" departPos="stop">
		<stop busStop="busStop_-2074_0_1351" duration="2"/>
		<stop busStop="busStop_-1489_0_12" duration="2"/>
		<stop busStop="busStop_gneE48_0_1555" duration="2"/>
		<stop busStop="busStop_-1510_0_1579" duration="2"/>
		<stop busStop="busStop_-1524_0_1354" duration="2"/>
		<stop busStop="busStop_-1540_0_17" duration="2"/>
		<stop busStop="busStop_-17310_0_742" duration="2"/>
		<stop busStop="busStop_-17309_0_18" duration="2"/>
		<stop busStop="busStop_-16503_0_19" duration="2"/>
		<stop busStop="busStop_-16517_0_1557" duration="2"/>
		<stop busStop="busStop_-17301_0_1357" duration="2"/>
		<stop busStop="busStop_-16532_1_21" duration="2"/>
		<stop busStop="busStop_-16542_0_22" duration="2"/>
		<stop busStop="busStop_-16560_0_23" duration="2"/>
		<stop busStop="busStop_-17159_0_24" duration="2"/>
		<stop busStop="busStop_-17162_0_25" duration="2"/>
		<stop busStop="busStop_-17163_0_26" duration="2"/>
		<stop busStop="busStop_-16616_0_27" duration="2"/>
		<stop busStop="busStop_-16625_0_28" duration="2"/>
		<stop busStop="busStop_gneE4_0_44" duration="2"/>
		<stop busStop="busStop_-29660_0_95" duration="2"/>
	</trip>
	<trip id="149216010" type="BUS" depart="45000" color="1,1,0" departPos="stop">
		<stop busStop="busStop_-2074_0_1351" duration="2"/>
		<stop busStop="busStop_-1489_0_12" duration="2"/>
		<stop busStop="busStop_gneE48_0_1555" duration="2"/>
		<stop busStop="busStop_-1510_0_1579" duration="2"/>
		<stop busStop="busStop_-1524_0_1354" duration="2"/>
		<stop busStop="busStop_-1540_0_17" duration="2"/>
		<stop busStop="busStop_-17310_0_742" duration="2"/>
		<stop busStop="busStop_-17309_0_18" duration="2"/>
		<stop busStop="busStop_-16503_0_19" duration="2"/>
		<stop busStop="busStop_-16517_0_1557" duration="2"/>
		<stop busStop="busStop_-17301_0_1357" duration="2"/>
		<stop busStop="busStop_-16532_1_21" duration="2"/>
		<stop busStop="busStop_-16542_0_22" duration="2"/>
		<stop busStop="busStop_-16560_0_23" duration="2"/>
		<stop busStop="busStop_-17159_0_24" duration="2"/>
		<stop busStop="busStop_-17162_0_25" duration="2"/>
		<stop busStop="busStop_-17163_0_26" duration="2"/>
		<stop busStop="busStop_-16616_0_27" duration="2"/>
		<stop busStop="busStop_-16625_0_28" duration="2"/>
		<stop busStop="busStop_gneE4_0_44" duration="2"/>
		<stop busStop="busStop_-29660_0_95" duration="2"/>
	</trip>
	<trip id="149217010" type="BUS" depart="49200" color="1,1,0" departPos="stop">
		<stop busStop="busStop_-2074_0_1351" duration="2"/>
		<stop busStop="busStop_-1489_0_12" duration="2"/>
		<stop busStop="busStop_gneE48_0_1555" duration="2"/>
		<stop busStop="busStop_-1510_0_1579" duration="2"/>
		<stop busStop="busStop_-1524_0_1354" duration="2"/>
		<stop busStop="busStop_-1540_0_17" duration="2"/>
		<stop busStop="busStop_-17310_0_742" duration="2"/>
		<stop busStop="busStop_-17309_0_18" duration="2"/>
		<stop busStop="busStop_-16503_0_19" duration="2"/>
		<stop busStop="busStop_-16517_0_1557" duration="2"/>
		<stop busStop="busStop_-17301_0_1357" duration="2"/>
		<stop busStop="busStop_-16532_1_21" duration="2"/>
		<stop busStop="busStop_-16542_0_22" duration="2"/>
		<stop busStop="busStop_-16560_0_23" duration="2"/>
		<stop busStop="busStop_-17159_0_24" duration="2"/>
		<stop busStop="busStop_-17162_0_25" duration="2"/>
		<stop busStop="busStop_-17163_0_26" duration="2"/>
		<stop busStop="busStop_-16616_0_27" duration="2"/>
		<stop busStop="busStop_-16625_0_28" duration="2"/>
		<stop busStop="busStop_gneE4_0_44" duration="2"/>
		<stop busStop="busStop_-29660_0_95" duration="2"/>
	</trip>
	<trip id="149218010" type="BUS" depart="53400" color="1,1,0" departPos="stop">
		<stop busStop="busStop_-2074_0_1351" duration="2"/>
		<stop busStop="busStop_-1489_0_12" duration="2"/>
		<stop busStop="busStop_gneE48_0_1555" duration="2"/>
		<stop busStop="busStop_-1510_0_1579" duration="2"/>
		<stop busStop="busStop_-1524_0_1354" duration="2"/>
		<stop busStop="busStop_-1540_0_17" duration="2"/>
		<stop busStop="busStop_-17310_0_742" duration="2"/>
		<stop busStop="busStop_-17309_0_18" duration="2"/>
		<stop busStop="busStop_-16503_0_19" duration="2"/>
		<stop busStop="busStop_-16517_0_1557" duration="2"/>
		<stop busStop="busStop_-17301_0_1357" duration="2"/>
		<stop busStop="busStop_-16532_1_21" duration="2"/>
		<stop busStop="busStop_-16542_0_22" duration="2"/>
		<stop busStop="busStop_-16560_0_23" duration="2"/>
		<stop busStop="busStop_-17159_0_24" duration="2"/>
		<stop busStop="busStop_-17162_0_25" duration="2"/>
		<stop busStop="busStop_-17163_0_26" duration="2"/>
		<stop busStop="busStop_-16616_0_27" duration="2"/>
		<stop busStop="busStop_-16625_0_28" duration="2"/>
		<stop busStop="busStop_gneE4_0_44" duration="2"/>
		<stop busStop="busStop_-29660_0_95" duration="2"/>
	</trip>
	<trip id="149219010" type="BUS" depart="57600" color="1,1,0" departPos="stop">
		<stop busStop="busStop_-2074_0_1351" duration="2"/>
		<stop busStop="busStop_-1489_0_12" duration="2"/>
		<stop busStop="busStop_gneE48_0_1555" duration="2"/>
		<stop busStop="busStop_-1510_0_1579" duration="2"/>
		<stop busStop="busStop_-1524_0_1354" duration="2"/>
		<stop busStop="busStop_-1540_0_17" duration="2"/>
		<stop busStop="busStop_-17310_0_742" duration="2"/>
		<stop busStop="busStop_-17309_0_18" duration="2"/>
		<stop busStop="busStop_-16503_0_19" duration="2"/>
		<stop busStop="busStop_-16517_0_1557" duration="2"/>
		<stop busStop="busStop_-17301_0_1357" duration="2"/>
		<stop busStop="busStop_-16532_1_21" duration="2"/>
		<stop busStop="busStop_-16542_0_22" duration="2"/>
		<stop busStop="busStop_-16560_0_23" duration="2"/>
		<stop busStop="busStop_-17159_0_24" duration="2"/>
		<stop busStop="busStop_-17162_0_25" duration="2"/>
		<stop busStop="busStop_-17163_0_26" duration="2"/>
		<stop busStop="busStop_-16616_0_27" duration="2"/>
		<stop busStop="busStop_-16625_0_28" duration="2"/>
		<stop busStop="busStop_gneE4_0_44" duration="2"/>
		<stop busStop="busStop_-29660_0_95" duration="2"/>
	</trip>
	<trip id="149220010" type="BUS" depart="62400" color="1,1,0" departPos="stop">
		<stop busStop="busStop_-2074_0_1351" duration="2"/>
		<stop busStop="busStop_-1489_0_12" duration="2"/>
		<stop busStop="busStop_gneE48_0_1555" duration="2"/>
		<stop busStop="busStop_-1510_0_1579" duration="2"/>
		<stop busStop="busStop_-1524_0_1354" duration="2"/>
		<stop busStop="busStop_-1540_0_17" duration="2"/>
		<stop busStop="busStop_-17310_0_742" duration="2"/>
		<stop busStop="busStop_-17309_0_18" duration="2"/>
		<stop busStop="busStop_-16503_0_19" duration="2"/>
		<stop busStop="busStop_-16517_0_1557" duration="2"/>
		<stop busStop="busStop_-17301_0_1357" duration="2"/>
		<stop busStop="busStop_-16532_1_21" duration="2"/>
		<stop busStop="busStop_-16542_0_22" duration="2"/>
		<stop busStop="busStop_-16560_0_23" duration="2"/>
		<stop busStop="busStop_-17159_0_24" duration="2"/>
		<stop busStop="busStop_-17162_0_25" duration="2"/>
		<stop busStop="busStop_-17163_0_26" duration="2"/>
		<stop busStop="busStop_-16616_0_27" duration="2"/>
		<stop busStop="busStop_-16625_0_28" duration="2"/>
		<stop busStop="busStop_gneE4_0_44" duration="2"/>
		<stop busStop="busStop_-29660_0_95" duration="2"/>
	</trip>
	<trip id="149221010" type="BUS" depart="66600" color="1,1,0" departPos="stop">
		<stop busStop="busStop_-2074_0_1351" duration="2"/>
		<stop busStop="busStop_-1489_0_12" duration="2"/>
		<stop busStop="busStop_gneE48_0_1555" duration="2"/>
		<stop busStop="busStop_-1510_0_1579" duration="2"/>
		<stop busStop="busStop_-1524_0_1354" duration="2"/>
		<stop busStop="busStop_-1540_0_17" duration="2"/>
		<stop busStop="busStop_-17310_0_742" duration="2"/>
		<stop busStop="busStop_-17309_0_18" duration="2"/>
		<stop busStop="busStop_-16503_0_19" duration="2"/>
		<stop busStop="busStop_-16517_0_1557" duration="2"/>
		<stop busStop="busStop_-17301_0_1357" duration="2"/>
		<stop busStop="busStop_-16532_1_21" duration="2"/>
		<stop busStop="busStop_-16542_0_22" duration="2"/>
		<stop busStop="busStop_-16560_0_23" duration="2"/>
		<stop busStop="busStop_-17159_0_24" duration="2"/>
		<stop busStop="busStop_-17162_0_25" duration="2"/>
		<stop busStop="busStop_-17163_0_26" duration="2"/>
		<stop busStop="busStop_-16616_0_27" duration="2"/>
		<stop busStop="busStop_-16625_0_28" duration="2"/>
		<stop busStop="busStop_gneE4_0_44" duration="2"/>
		<stop busStop="busStop_-29660_0_95" duration="2"/>
	</trip>
	<trip id="149222010" type="BUS" depart="71400" color="1,1,0" departPos="stop">
		<stop busStop="busStop_-2074_0_1351" duration="2"/>
		<stop busStop="busStop_-1489_0_12" duration="2"/>
		<stop busStop="busStop_gneE48_0_1555" duration="2"/>
		<stop busStop="busStop_-1510_0_1579" duration="2"/>
		<stop busStop="busStop_-1524_0_1354" duration="2"/>
		<stop busStop="busStop_-1540_0_17" duration="2"/>
		<stop busStop="busStop_-17310_0_742" duration="2"/>
		<stop busStop="busStop_-17309_0_18" duration="2"/>
		<stop busStop="busStop_-16503_0_19" duration="2"/>
		<stop busStop="busStop_-16517_0_1557" duration="2"/>
		<stop busStop="busStop_-17301_0_1357" duration="2"/>
		<stop busStop="busStop_-16532_1_21" duration="2"/>
		<stop busStop="busStop_-16542_0_22" duration="2"/>
		<stop busStop="busStop_-16560_0_23" duration="2"/>
		<stop busStop="busStop_-17159_0_24" duration="2"/>
		<stop busStop="busStop_-17162_0_25" duration="2"/>
		<stop busStop="busStop_-17163_0_26" duration="2"/>
		<stop busStop="busStop_-16616_0_27" duration="2"/>
		<stop busStop="busStop_-16625_0_28" duration="2"/>
		<stop busStop="busStop_gneE4_0_44" duration="2"/>
		<stop busStop="busStop_-29660_0_95" duration="2"/>
	</trip>
	<trip id="149223010" type="BUS" depart="34200" color="1,1,0" departPos="stop">
		<stop busStop="busStop_-29660_0_95" duration="2"/>
		<stop busStop="busStop_-31047_0_1891" duration="2"/>
		<stop busStop="busStop_29683_0_1915" duration="2"/>
		<stop busStop="busStop_29683_0_72" duration="2"/>
		<stop busStop="busStop_29683_0_1892" duration="2"/>
		<stop busStop="busStop_-29571_0_161" duration="2"/>
		<stop busStop="busStop_-29618_0_74" duration="2"/>
		<stop busStop="busStop_-29618_0_75" duration="2"/>
		<stop busStop="busStop_29641_0_158" duration="2"/>
		<stop busStop="busStop_29581_0_157" duration="2"/>
		<stop busStop="busStop_29622_0_155" duration="2"/>
		<stop busStop="busStop_29604_0_146" duration="2"/>
		<stop busStop="busStop_29604_0_81" duration="2"/>
		<stop busStop="busStop_29604_0_90" duration="2"/>
		<stop busStop="busStop_29508_0_1486" duration="2"/>
		<stop busStop="busStop_29500_0_1899" duration="2"/>
		<stop busStop="busStop_29478_0_148" duration="2"/>
		<stop busStop="busStop_29466_0_1731" duration="2"/>
		<stop busStop="busStop_29443_0_1797" duration="2"/>
		<stop busStop="busStop_31730_0_150" duration="2"/>
		<stop busStop="busStop_31186_0_151" duration="2"/>
		<stop busStop="busStop_29290_0_152" duration="2"/>
		<stop busStop="busStop_-29302_0_100" duration="2"/>
		<stop busStop="busStop_29031_0_103" duration="2"/>
		<stop busStop="busStop_27643_0_104" duration="2"/>
		<stop busStop="busStop_16997_0_105" duration="2"/>
		<stop busStop="busStop_17250_0_107" duration="2"/>
		<stop busStop="busStop_16794_0_108" duration="2"/>
		<stop busStop="busStop_16789_0_110" duration="2"/>
		<stop busStop="busStop_17114_0_111" duration="2"/>
		<stop busStop="busStop_29924_0_112" duration="2"/>
		<stop busStop="busStop_27303_0_113" duration="2"/>
		<stop busStop="busStop_-27439_0_115" duration="2"/>
		<stop busStop="busStop_-30953_0_116" duration="2"/>
		<stop busStop="busStop_-30953_0_1912" duration="2"/>
		<stop busStop="busStop_-30953_0_118" duration="2"/>
		<stop busStop="busStop_-30953_0_1913" duration="2"/>
		<stop busStop="busStop_gneE4_0_44" duration="2"/>
		<stop busStop="busStop_30948_0_1914" duration="2"/>
		<stop busStop="busStop_16751_0_1358" duration="2"/>
		<stop busStop="busStop_16747_0_1582" duration="2"/>
		<stop busStop="busStop_16735_0_124" duration="2"/>
		<stop busStop="busStop_-26890_0_125" duration="2"/>
		<stop busStop="busStop_-26942_0_127" duration="2"/>
		<stop busStop="busStop_-26942_0_128" duration="2"/>
		<stop busStop="busStop_-26959_0_129" duration="2"/>
		<stop busStop="busStop_-27020_0_130" duration="2"/>
		<stop busStop="busStop_17296_0_132" duration="2"/>
		<stop busStop="busStop_16933_0_133" duration="2"/>
		<stop busStop="busStop_17258_0_134" duration="2"/>
		<stop busStop="busStop_17116_0_136" duration="2"/>
		<stop busStop="busStop_17162_0_1487" duration="2"/>
		<stop busStop="busStop_17160_0_138" duration="2"/>
		<stop busStop="busStop_16552_0_139" duration="2"/>
		<stop busStop="busStop_16542_0_140" duration="2"/>
		<stop busStop="busStop_17166_0_141" duration="2"/>
		<stop busStop="busStop_17301_0_142" duration="2"/>
		<stop busStop="busStop_16517_0_143" duration="2"/>
		<stop busStop="busStop_16513_0_144" duration="2"/>
		<stop busStop="busStop_16503_0_145" duration="2"/>
	</trip>
	<trip id="149224010" type="BUS" depart="38400" color="1,1,0" departPos="stop">
		<stop busStop="busStop_-29660_0_95" duration="2"/>
		<stop busStop="busStop_-31047_0_1891" duration="2"/>
		<stop busStop="busStop_29683_0_1915" duration="2"/>
		<stop busStop="busStop_29683_0_72" duration="2"/>
		<stop busStop="busStop_29683_0_1892" duration="2"/>
		<stop busStop="busStop_-29571_0_161" duration="2"/>
		<stop busStop="busStop_-29618_0_74" duration="2"/>
		<stop busStop="busStop_-29618_0_75" duration="2"/>
		<stop busStop="busStop_29641_0_158" duration="2"/>
		<stop busStop="busStop_29581_0_157" duration="2"/>
		<stop busStop="busStop_29622_0_155" duration="2"/>
		<stop busStop="busStop_29604_0_146" duration="2"/>
		<stop busStop="busStop_29604_0_81" duration="2"/>
		<stop busStop="busStop_29604_0_90" duration="2"/>
		<stop busStop="busStop_29508_0_1486" duration="2"/>
		<stop busStop="busStop_29500_0_1899" duration="2"/>
		<stop busStop="busStop_29478_0_148" duration="2"/>
		<stop busStop="busStop_29466_0_1731" duration="2"/>
		<stop busStop="busStop_29443_0_1797" duration="2"/>
		<stop busStop="busStop_31730_0_150" duration="2"/>
		<stop busStop="busStop_31186_0_151" duration="2"/>
		<stop busStop="busStop_29290_0_152" duration="2"/>
		<stop busStop="busStop_-29302_0_100" duration="2"/>
		<stop busStop="busStop_29031_0_103" duration="2"/>
		<stop busStop="busStop_27643_0_104" duration="2"/>
		<stop busStop="busStop_16997_0_105" duration="2"/>
		<stop busStop="busStop_17250_0_107" duration="2"/>
		<stop busStop="busStop_16794_0_108" duration="2"/>
		<stop busStop="busStop_16789_0_110" duration="2"/>
		<stop busStop="busStop_17114_0_111" duration="2"/>
		<stop busStop="busStop_29924_0_112" duration="2"/>
		<stop busStop="busStop_27303_0_113" duration="2"/>
		<stop busStop="busStop_-27439_0_115" duration="2"/>
		<stop busStop="busStop_-30953_0_116" duration="2"/>
		<stop busStop="busStop_-30953_0_1912" duration="2"/>
		<stop busStop="busStop_-30953_0_118" duration="2"/>
		<stop busStop="busStop_-30953_0_1913" duration="2"/>
		<stop busStop="busStop_gneE4_0_44" duration="2"/>
		<stop busStop="busStop_30948_0_1914" duration="2"/>
		<stop busStop="busStop_16751_0_1358" duration="2"/>
		<stop busStop="busStop_16747_0_1582" duration="2"/>
		<stop busStop="busStop_16735_0_124" duration="2"/>
		<stop busStop="busStop_-26890_0_125" duration="2"/>
		<stop busStop="busStop_-26942_0_127" duration="2"/>
		<stop busStop="busStop_-26942_0_128" duration="2"/>
		<stop busStop="busStop_-26959_0_129" duration="2"/>
		<stop busStop="busStop_-27020_0_130" duration="2"/>
		<stop busStop="busStop_17296_0_132" duration="2"/>
		<stop busStop="busStop_16933_0_133" duration="2"/>
		<stop busStop="busStop_17258_0_134" duration="2"/>
		<stop busStop="busStop_17116_0_136" duration="2"/>
		<stop busStop="busStop_17162_0_1487" duration="2"/>
		<stop busStop="busStop_17160_0_138" duration="2"/>
		<stop busStop="busStop_16552_0_139" duration="2"/>
		<stop busStop="busStop_16542_0_140" duration="2"/>
		<stop busStop="busStop_17166_0_141" duration="2"/>
		<stop busStop="busStop_17301_0_142" duration="2"/>
		<stop busStop="busStop_16517_0_143" duration="2"/>
		<stop busStop="busStop_16513_0_144" duration="2"/>
		<stop busStop="busStop_16503_0_145" duration="2"/>
	</trip>
	<trip id="149225010" type="BUS" depart="42600" color="1,1,0" departPos="stop">
		<stop busStop="busStop_-29660_0_95" duration="2"/>
		<stop busStop="busStop_-31047_0_1891" duration="2"/>
		<stop busStop="busStop_29683_0_1915" duration="2"/>
		<stop busStop="busStop_29683_0_72" duration="2"/>
		<stop busStop="busStop_29683_0_1892" duration="2"/>
		<stop busStop="busStop_-29571_0_161" duration="2"/>
		<stop busStop="busStop_-29618_0_74" duration="2"/>
		<stop busStop="busStop_-29618_0_75" duration="2"/>
		<stop busStop="busStop_29641_0_158" duration="2"/>
		<stop busStop="busStop_29581_0_157" duration="2"/>
		<stop busStop="busStop_29622_0_155" duration="2"/>
		<stop busStop="busStop_29604_0_146" duration="2"/>
		<stop busStop="busStop_29604_0_81" duration="2"/>
		<stop busStop="busStop_29604_0_90" duration="2"/>
		<stop busStop="busStop_29508_0_1486" duration="2"/>
		<stop busStop="busStop_29500_0_1899" duration="2"/>
		<stop busStop="busStop_29478_0_148" duration="2"/>
		<stop busStop="busStop_29466_0_1731" duration="2"/>
		<stop busStop="busStop_29443_0_1797" duration="2"/>
		<stop busStop="busStop_31730_0_150" duration="2"/>
		<stop busStop="busStop_31186_0_151" duration="2"/>
		<stop busStop="busStop_29290_0_152" duration="2"/>
		<stop busStop="busStop_-29302_0_100" duration="2"/>
		<stop busStop="busStop_29031_0_103" duration="2"/>
		<stop busStop="busStop_27643_0_104" duration="2"/>
		<stop busStop="busStop_16997_0_105" duration="2"/>
		<stop busStop="busStop_17250_0_107" duration="2"/>
		<stop busStop="busStop_16794_0_108" duration="2"/>
		<stop busStop="busStop_16789_0_110" duration="2"/>
		<stop busStop="busStop_17114_0_111" duration="2"/>
		<stop busStop="busStop_29924_0_112" duration="2"/>
		<stop busStop="busStop_27303_0_113" duration="2"/>
		<stop busStop="busStop_-27439_0_115" duration="2"/>
		<stop busStop="busStop_-30953_0_116" duration="2"/>
		<stop busStop="busStop_-30953_0_1912" duration="2"/>
		<stop busStop="busStop_-30953_0_118" duration="2"/>
		<stop busStop="busStop_-30953_0_1913" duration="2"/>
		<stop busStop="busStop_gneE4_0_44" duration="2"/>
		<stop busStop="busStop_30948_0_1914" duration="2"/>
		<stop busStop="busStop_16751_0_1358" duration="2"/>
		<stop busStop="busStop_16747_0_1582" duration="2"/>
		<stop busStop="busStop_16735_0_124" duration="2"/>
		<stop busStop="busStop_-26890_0_125" duration="2"/>
		<stop busStop="busStop_-26942_0_127" duration="2"/>
		<stop busStop="busStop_-26942_0_128" duration="2"/>
		<stop busStop="busStop_-26959_0_129" duration="2"/>
		<stop busStop="busStop_-27020_0_130" duration="2"/>
		<stop busStop="busStop_17296_0_132" duration="2"/>
		<stop busStop="busStop_16933_0_133" duration="2"/>
		<stop busStop="busStop_17258_0_134" duration="2"/>
		<stop busStop="busStop_17116_0_136" duration="2"/>
		<stop busStop="busStop_17162_0_1487" duration="2"/>
		<stop busStop="busStop_17160_0_138" duration="2"/>
		<stop busStop="busStop_16552_0_139" duration="2"/>
		<stop busStop="busStop_16542_0_140" duration="2"/>
		<stop busStop="busStop_17166_0_141" duration="2"/>
		<stop busStop="busStop_17301_0_142" duration="2"/>
		<stop busStop="busStop_16517_0_143" duration="2"/>
		<stop busStop="busStop_16513_0_144" duration="2"/>
		<stop busStop="busStop_16503_0_145" duration="2"/>
	</trip>
	<trip id="149226010" type="BUS" depart="46800" color="1,1,0" departPos="stop">
		<stop busStop="busStop_-29660_0_95" duration="2"/>
		<stop busStop="busStop_-31047_0_1891" duration="2"/>
		<stop busStop="busStop_29683_0_1915" duration="2"/>
		<stop busStop="busStop_29683_0_72" duration="2"/>
		<stop busStop="busStop_29683_0_1892" duration="2"/>
		<stop busStop="busStop_-29571_0_161" duration="2"/>
		<stop busStop="busStop_-29618_0_74" duration="2"/>
		<stop busStop="busStop_-29618_0_75" duration="2"/>
		<stop busStop="busStop_29641_0_158" duration="2"/>
		<stop busStop="busStop_29581_0_157" duration="2"/>
		<stop busStop="busStop_29622_0_155" duration="2"/>
		<stop busStop="busStop_29604_0_146" duration="2"/>
		<stop busStop="busStop_29604_0_81" duration="2"/>
		<stop busStop="busStop_29604_0_90" duration="2"/>
		<stop busStop="busStop_29508_0_1486" duration="2"/>
		<stop busStop="busStop_29500_0_1899" duration="2"/>
		<stop busStop="busStop_29478_0_148" duration="2"/>
		<stop busStop="busStop_29466_0_1731" duration="2"/>
		<stop busStop="busStop_29443_0_1797" duration="2"/>
		<stop busStop="busStop_31730_0_150" duration="2"/>
		<stop busStop="busStop_31186_0_151" duration="2"/>
		<stop busStop="busStop_29290_0_152" duration="2"/>
		<stop busStop="busStop_-29302_0_100" duration="2"/>
		<stop busStop="busStop_29031_0_103" duration="2"/>
		<stop busStop="busStop_27643_0_104" duration="2"/>
		<stop busStop="busStop_16997_0_105" duration="2"/>
		<stop busStop="busStop_16797_0_106" duration="2"/>
		<stop busStop="busStop_17250_0_107" duration="2"/>
		<stop busStop="busStop_16794_0_108" duration="2"/>
		<stop busStop="busStop_16789_0_110" duration="2"/>
		<stop busStop="busStop_17114_0_111" duration="2"/>
		<stop busStop="busStop_29924_0_112" duration="2"/>
		<stop busStop="busStop_27303_0_113" duration="2"/>
		<stop busStop="busStop_-27439_0_115" duration="2"/>
		<stop busStop="busStop_-30953_0_116" duration="2"/>
		<stop busStop="busStop_-30953_0_1912" duration="2"/>
		<stop busStop="busStop_-30953_0_118" duration="2"/>
		<stop busStop="busStop_-30953_0_1913" duration="2"/>
		<stop busStop="busStop_gneE4_0_44" duration="2"/>
		<stop busStop="busStop_30948_0_1914" duration="2"/>
		<stop busStop="busStop_30950_0_1488" duration="2"/>
		<stop busStop="busStop_27173_0_1684" duration="2"/>
		<stop busStop="busStop_16751_0_1358" duration="2"/>
		<stop busStop="busStop_16747_0_1582" duration="2"/>
		<stop busStop="busStop_16735_0_124" duration="2"/>
		<stop busStop="busStop_-26890_0_125" duration="2"/>
		<stop busStop="busStop_-26942_0_127" duration="2"/>
		<stop busStop="busStop_-26942_0_128" duration="2"/>
		<stop busStop="busStop_-26959_0_129" duration="2"/>
		<stop busStop="busStop_-27020_0_130" duration="2"/>
		<stop busStop="busStop_17296_0_132" duration="2"/>
		<stop busStop="busStop_16933_0_133" duration="2"/>
		<stop busStop="busStop_17258_0_134" duration="2"/>
		<stop busStop="busStop_17116_0_136" duration="2"/>
		<stop busStop="busStop_17162_0_1487" duration="2"/>
		<stop busStop="busStop_17160_0_138" duration="2"/>
		<stop busStop="busStop_16552_0_139" duration="2"/>
		<stop busStop="busStop_16542_0_140" duration="2"/>
		<stop busStop="busStop_17166_0_141" duration="2"/>
		<stop busStop="busStop_17301_0_142" duration="2"/>
		<stop busStop="busStop_16517_0_143" duration="2"/>
		<stop busStop="busStop_16513_0_144" duration="2"/>
		<stop busStop="busStop_16503_0_145" duration="2"/>
		<stop busStop="busStop_17310_0_1560" duration="2"/>
		<stop busStop="busStop_17310_0_163" duration="2"/>
		<stop busStop="busStop_gneE34_0_164" duration="2"/>
		<stop busStop="busStop_1524_0_165" duration="2"/>
		<stop busStop="busStop_1510_0_1361" duration="2"/>
		<stop busStop="busStop_1489_0_166" duration="2"/>
		<stop busStop="busStop_1480_0_167" duration="2"/>
		<stop busStop="busStop_-600_0_169" duration="2"/>
		<stop busStop="busStop_327_0_170" duration="2"/>
		<stop busStop="busStop_-2716_0_171" duration="2"/>
		<stop busStop="busStop_2483_1_172" duration="2"/>
		<stop busStop="busStop_2007_0_505" duration="2"/>
		<stop busStop="busStop_9282_0_690" duration="2"/>
	</trip>
	<trip id="149227010" type="BUS" depart="51000" color="1,1,0" departPos="stop">
		<stop busStop="busStop_-29660_0_95" duration="2"/>
		<stop busStop="busStop_-31047_0_1891" duration="2"/>
		<stop busStop="busStop_29683_0_1915" duration="2"/>
		<stop busStop="busStop_29683_0_72" duration="2"/>
		<stop busStop="busStop_29683_0_1892" duration="2"/>
		<stop busStop="busStop_-29571_0_161" duration="2"/>
		<stop busStop="busStop_-29618_0_74" duration="2"/>
		<stop busStop="busStop_-29618_0_75" duration="2"/>
		<stop busStop="busStop_29641_0_158" duration="2"/>
		<stop busStop="busStop_29581_0_157" duration="2"/>
		<stop busStop="busStop_29622_0_155" duration="2"/>
		<stop busStop="busStop_29604_0_146" duration="2"/>
		<stop busStop="busStop_29604_0_81" duration="2"/>
		<stop busStop="busStop_29604_0_90" duration="2"/>
		<stop busStop="busStop_29508_0_1486" duration="2"/>
		<stop busStop="busStop_29500_0_1899" duration="2"/>
		<stop busStop="busStop_29478_0_148" duration="2"/>
		<stop busStop="busStop_29466_0_1731" duration="2"/>
		<stop busStop="busStop_29443_0_1797" duration="2"/>
		<stop busStop="busStop_31730_0_150" duration="2"/>
		<stop busStop="busStop_31186_0_151" duration="2"/>
		<stop busStop="busStop_29290_0_152" duration="2"/>
		<stop busStop="busStop_-29302_0_100" duration="2"/>
		<stop busStop="busStop_29031_0_103" duration="2"/>
		<stop busStop="busStop_27643_0_104" duration="2"/>
		<stop busStop="busStop_16997_0_105" duration="2"/>
		<stop busStop="busStop_17250_0_107" duration="2"/>
		<stop busStop="busStop_16794_0_108" duration="2"/>
		<stop busStop="busStop_16789_0_110" duration="2"/>
		<stop busStop="busStop_17114_0_111" duration="2"/>
		<stop busStop="busStop_29924_0_112" duration="2"/>
		<stop busStop="busStop_27303_0_113" duration="2"/>
		<stop busStop="busStop_-27439_0_115" duration="2"/>
		<stop busStop="busStop_-30953_0_116" duration="2"/>
		<stop busStop="busStop_-30953_0_1912" duration="2"/>
		<stop busStop="busStop_-30953_0_118" duration="2"/>
		<stop busStop="busStop_-30953_0_1913" duration="2"/>
		<stop busStop="busStop_gneE4_0_44" duration="2"/>
		<stop busStop="busStop_30948_0_1914" duration="2"/>
		<stop busStop="busStop_16751_0_1358" duration="2"/>
		<stop busStop="busStop_16747_0_1582" duration="2"/>
		<stop busStop="busStop_16735_0_124" duration="2"/>
		<stop busStop="busStop_-26890_0_125" duration="2"/>
		<stop busStop="busStop_-26942_0_127" duration="2"/>
		<stop busStop="busStop_-26942_0_128" duration="2"/>
		<stop busStop="busStop_-26959_0_129" duration="2"/>
		<stop busStop="busStop_-27020_0_130" duration="2"/>
		<stop busStop="busStop_17296_0_132" duration="2"/>
		<stop busStop="busStop_16933_0_133" duration="2"/>
		<stop busStop="busStop_17258_0_134" duration="2"/>
		<stop busStop="busStop_17116_0_136" duration="2"/>
		<stop busStop="busStop_17162_0_1487" duration="2"/>
		<stop busStop="busStop_17160_0_138" duration="2"/>
		<stop busStop="busStop_16552_0_139" duration="2"/>