<routes>
	<trip id="Route3_ENTERPRISE_SOUTH_block301_trip151733020" type="Gillig_101" depart="16860.0" color="1,1,0" departPos="stop">
		<stop busStop="busStop_-9282_0_354" duration="3" until="16860.0" arrival="16857.0"/>
		<stop busStop="busStop_-2074_0_1351" duration="3" until="17400.0" arrival="17397.0"/>
		<stop busStop="busStop_2210_0_1755" duration="3" until="19200.0" arrival="19197.0"/>
	</trip>
	<trip id="Route4_EASTGATE_HAMILTON_PL_block409_trip152323020" type="Gillig_102" depart="16860.0" color="1,1,0" departPos="stop">
		<stop busStop="busStop_-9282_0_354" duration="3" until="16860.0" arrival="16857.0"/>
		<stop busStop="busStop_2007_0_505" duration="3" until="17079.0" arrival="17076.0"/>
		<stop busStop="busStop_-78835_0_784" duration="3" until="17244.0" arrival="17241.0"/>
		<stop busStop="busStop_9455_0_284" duration="3" until="17280.0" arrival="17277.0"/>
		<stop busStop="busStop_13630_0_285" duration="3" until="17325.0" arrival="17322.0"/>
		<stop busStop="busStop_-9383_0_286" duration="3" until="17358.0" arrival="17355.0"/>
		<stop busStop="busStop_-9385_0_287" duration="3" until="17373.0" arrival="17370.0"/>
		<stop busStop="busStop_-2074_0_1351" duration="3" until="17400.0" arrival="17397.0"/>
		<stop busStop="busStop_-1489_0_12" duration="3" until="17440.0" arrival="17437.0"/>
		<stop busStop="busStop_gneE48_0_1555" duration="3" until="17483.0" arrival="17480.0"/>
		<stop busStop="busStop_-1510_0_1579" duration="3" until="17495.0" arrival="17492.0"/>
		<stop busStop="busStop_-1524_0_1354" duration="3" until="17528.0" arrival="17525.0"/>
		<stop busStop="busStop_-1540_0_17" duration="3" until="17557.0" arrival="17554.0"/>
		<stop busStop="busStop_-17310_0_742" duration="3" until="17576.0" arrival="17573.0"/>
		<stop busStop="busStop_17637_0_806" duration="3" until="17810.0" arrival="17807.0"/>
		<stop busStop="busStop_2467_0_1475" duration="3" until="17872.0" arrival="17869.0"/>
		<stop busStop="busStop_-1535_0_1474" duration="3" until="17882.0" arrival="17879.0"/>
		<stop busStop="busStop_-16485_0_811" duration="3" until="17906.0" arrival="17903.0"/>
		<stop busStop="busStop_-16486_0_812" duration="3" until="17925.0" arrival="17922.0"/>
		<stop busStop="busStop_-17060_0_813" duration="3" until="17956.0" arrival="17953.0"/>
		<stop busStop="busStop_-16500_1_814" duration="3" until="17975.0" arrival="17972.0"/>
		<stop busStop="busStop_-16501_0_815" duration="3" until="17989.0" arrival="17986.0"/>
		<stop busStop="busStop_-16502_0_816" duration="3" until="18008.0" arrival="18005.0"/>
		<stop busStop="busStop_-16506_0_817" duration="3" until="18025.0" arrival="18022.0"/>
		<stop busStop="busStop_-16508_0_818" duration="3" until="18044.0" arrival="18041.0"/>
		<stop busStop="busStop_-16526_0_820" duration="3" until="18132.0" arrival="18129.0"/>
		<stop busStop="busStop_-16528_0_821" duration="3" until="18149.0" arrival="18146.0"/>
		<stop busStop="busStop_-17289_0_822" duration="3" until="18168.0" arrival="18165.0"/>
		<stop busStop="busStop_-16534_0_823" duration="3" until="18187.0" arrival="18184.0"/>
		<stop busStop="busStop_-17251_0_824" duration="3" until="18204.0" arrival="18201.0"/>
		<stop busStop="busStop_-16540_0_825" duration="3" until="18223.0" arrival="18220.0"/>
		<stop busStop="busStop_-16543_0_826" duration="3" until="18242.0" arrival="18239.0"/>
		<stop busStop="busStop_-16547_0_827" duration="3" until="18261.0" arrival="18258.0"/>
		<stop busStop="busStop_-16975_1_828" duration="3" until="18285.0" arrival="18282.0"/>
		<stop busStop="busStop_-16974_1_829" duration="3" until="18300.0" arrival="18297.0"/>
		<stop busStop="busStop_-16561_0_321" duration="3" until="18316.0" arrival="18313.0"/>
		<stop busStop="busStop_-16565_0_322" duration="3" until="18334.0" arrival="18331.0"/>
		<stop busStop="busStop_-16571_0_830" duration="3" until="18348.0" arrival="18345.0"/>
		<stop busStop="busStop_16570_1_831" duration="3" until="18369.0" arrival="18366.0"/>
		<stop busStop="busStop_16932_0_832" duration="3" until="18383.0" arrival="18380.0"/>
		<stop busStop="busStop_-16160_0_833" duration="3" until="18432.0" arrival="18429.0"/>
		<stop busStop="busStop_-16599_0_835" duration="3" until="18514.0" arrival="18511.0"/>
		<stop busStop="busStop_-16609_0_836" duration="3" until="18538.0" arrival="18535.0"/>
		<stop busStop="busStop_-16615_0_837" duration="3" until="18563.0" arrival="18560.0"/>
		<stop busStop="busStop_-16634_0_838" duration="3" until="18577.0" arrival="18574.0"/>
		<stop busStop="busStop_-16641_0_839" duration="3" until="18600.0" arrival="18597.0"/>
		<stop busStop="busStop_-16641_0_840" duration="3" until="18617.0" arrival="18614.0"/>
		<stop busStop="busStop_-38555_0_841" duration="3" until="18634.0" arrival="18631.0"/>
		<stop busStop="busStop_-16694_0_844" duration="3" until="18683.0" arrival="18680.0"/>
		<stop busStop="busStop_-16710_0_845" duration="3" until="18708.0" arrival="18705.0"/>
		<stop busStop="busStop_-16736_0_848" duration="3" until="18745.0" arrival="18742.0"/>
		<stop busStop="busStop_-16743_0_849" duration="3" until="18754.0" arrival="18751.0"/>
		<stop busStop="busStop_-16743_0_850" duration="3" until="18768.0" arrival="18765.0"/>
		<stop busStop="busStop_-16749_0_851" duration="3" until="18783.0" arrival="18780.0"/>
		<stop busStop="busStop_-17101_0_852" duration="3" until="18799.0" arrival="18796.0"/>
		<stop busStop="busStop_-17147_0_854" duration="3" until="18843.0" arrival="18840.0"/>
		<stop busStop="busStop_-16766_0_856" duration="3" until="18869.0" arrival="18866.0"/>
		<stop busStop="busStop_-16770_0_857" duration="3" until="18888.0" arrival="18885.0"/>
		<stop busStop="busStop_-16772_0_858" duration="3" until="18898.0" arrival="18895.0"/>
		<stop busStop="busStop_-16774_0_859" duration="3" until="18907.0" arrival="18904.0"/>
		<stop busStop="busStop_16777_0_860" duration="3" until="18932.0" arrival="18929.0"/>
		<stop busStop="busStop_-16777_0_861" duration="3" until="18942.0" arrival="18939.0"/>
		<stop busStop="busStop_16980_2_1873" duration="3" until="18971.0" arrival="18968.0"/>
		<stop busStop="busStop_-31946_0_1849" duration="3" until="19020.0" arrival="19017.0"/>
		<stop busStop="busStop_-27462_0_1850" duration="3" until="19037.0" arrival="19034.0"/>
		<stop busStop="busStop_-31994_0_1819" duration="3" until="19058.0" arrival="19055.0"/>
		<stop busStop="busStop_30426_0_867" duration="3" until="19184.0" arrival="19181.0"/>
		<stop busStop="busStop_30431_0_868" duration="3" until="19200.0" arrival="19197.0"/>
		<stop busStop="busStop_32225_0_869" duration="3" until="19288.0" arrival="19285.0"/>
		<stop busStop="busStop_17341_2_870" duration="3" until="19346.0" arrival="19343.0"/>
		<stop busStop="busStop_16934_2_871" duration="3" until="19377.0" arrival="19374.0"/>
		<stop busStop="busStop_16705_0_872" duration="3" until="19415.0" arrival="19412.0"/>
		<stop busStop="busStop_16664_0_874" duration="3" until="19558.0" arrival="19555.0"/>
		<stop busStop="busStop_16591_0_879" duration="3" until="19785.0" arrival="19782.0"/>
		<stop busStop="busStop_38559_0_880" duration="3" until="19828.0" arrival="19825.0"/>
		<stop busStop="busStop_16568_0_881" duration="3" until="19866.0" arrival="19863.0"/>
		<stop busStop="busStop_17307_0_884" duration="3" until="20098.0" arrival="20095.0"/>
		<stop busStop="busStop_17308_0_885" duration="3" until="20163.0" arrival="20160.0"/>
		<stop busStop="busStop_16497_1_886" duration="3" until="20205.0" arrival="20202.0"/>
		<stop busStop="busStop_16489_0_887" duration="3" until="20252.0" arrival="20249.0"/>
		<stop busStop="busStop_1521_0_891" duration="3" until="20364.0" arrival="20361.0"/>
		<stop busStop="busStop_-1517_0_1875" duration="3" until="20406.0" arrival="20403.0"/>
		<stop busStop="busStop_-1527_1_894" duration="3" until="20437.0" arrival="20434.0"/>
		<stop busStop="busStop_-16951_1_1485" duration="3" until="20471.0" arrival="20468.0"/>
		<stop busStop="busStop_-31312_0_897" duration="3" until="20560.0" arrival="20557.0"/>
		<stop busStop="busStop_-31315_0_898" duration="3" until="20587.0" arrival="20584.0"/>
		<stop busStop="busStop_30289_0_1876" duration="3" until="21000.0" arrival="20997.0"/>
	</trip>
	<trip id="Route1_ALTON_PARK_block109_trip152320020" type="Gillig_103" depart="17160.0" color="1,1,0" departPos="stop">
		<stop busStop="busStop_-9282_0_354" duration="3" until="17160.0" arrival="17157.0"/>
		<stop busStop="busStop_2007_0_505" duration="3" until="17379.0" arrival="17376.0"/>
		<stop busStop="busStop_-78835_0_784" duration="3" until="17544.0" arrival="17541.0"/>
		<stop busStop="busStop_9455_0_284" duration="3" until="17580.0" arrival="17577.0"/>
		<stop busStop="busStop_13630_0_285" duration="3" until="17625.0" arrival="17622.0"/>
		<stop busStop="busStop_-9383_0_286" duration="3" until="17658.0" arrival="17655.0"/>
		<stop busStop="busStop_-9385_0_287" duration="3" until="17673.0" arrival="17670.0"/>
		<stop busStop="busStop_-2074_0_1351" duration="3" until="17700.0" arrival="17697.0"/>
		<stop busStop="busStop_-1489_0_12" duration="3" until="17751.0" arrival="17748.0"/>
		<stop busStop="busStop_gneE48_0_1555" duration="3" until="17806.0" arrival="17803.0"/>
		<stop busStop="busStop_-1510_0_1579" duration="3" until="17821.0" arrival="17818.0"/>
		<stop busStop="busStop_-1524_0_1354" duration="3" until="17863.0" arrival="17860.0"/>
		<stop busStop="busStop_-1540_0_17" duration="3" until="17900.0" arrival="17897.0"/>
		<stop busStop="busStop_-17310_0_742" duration="3" until="17924.0" arrival="17921.0"/>
		<stop busStop="busStop_-17309_0_18" duration="3" until="17963.0" arrival="17960.0"/>
		<stop busStop="busStop_-16503_0_19" duration="3" until="18003.0" arrival="18000.0"/>
		<stop busStop="busStop_-16517_0_1557" duration="3" until="18054.0" arrival="18051.0"/>
		<stop busStop="busStop_-17301_0_1357" duration="3" until="18081.0" arrival="18078.0"/>
		<stop busStop="busStop_-16532_1_21" duration="3" until="18096.0" arrival="18093.0"/>
		<stop busStop="busStop_-16542_0_22" duration="3" until="18130.0" arrival="18127.0"/>
		<stop busStop="busStop_-16560_0_23" duration="3" until="18160.0" arrival="18157.0"/>
		<stop busStop="busStop_-17159_0_24" duration="3" until="18178.0" arrival="18175.0"/>
		<stop busStop="busStop_-17162_0_25" duration="3" until="18200.0" arrival="18197.0"/>
		<stop busStop="busStop_-17163_0_26" duration="3" until="18263.0" arrival="18260.0"/>
		<stop busStop="busStop_-16616_0_27" duration="3" until="18281.0" arrival="18278.0"/>
		<stop busStop="busStop_-16625_0_28" duration="3" until="18300.0" arrival="18297.0"/>
		<stop busStop="busStop_gneE4_0_44" duration="3" until="18600.0" arrival="18597.0"/>
		<stop busStop="busStop_-29660_0_95" duration="3" until="19500.0" arrival="19497.0"/>
	</trip>
	<trip id="Route3_3_DOWNTOWN__block301_trip151740020" type="Gillig_102" depart="19500.0" color="1,1,0" departPos="stop">
		<stop busStop="busStop_-2074_0_1351" duration="3" until="21900.0" arrival="21897.0"/>
	</trip>
	<trip id="Route1_DOWNTOWN_block109_trip152321020" type="Gillig_102" depart="19500.0" color="1,1,0" departPos="stop">
		<stop busStop="busStop_-29660_0_95" duration="3" until="19500.0" arrival="19497.0"/>
		<stop busStop="busStop_-31047_0_1891" duration="3" until="19538.0" arrival="19535.0"/>
		<stop busStop="busStop_29683_0_1915" duration="3" until="19557.0" arrival="19554.0"/>
		<stop busStop="busStop_29683_0_72" duration="3" until="19568.0" arrival="19565.0"/>
		<stop busStop="busStop_29683_0_1892" duration="3" until="19580.0" arrival="19577.0"/>
		<stop busStop="busStop_-29571_0_161" duration="3" until="19593.0" arrival="19590.0"/>
		<stop busStop="busStop_-29618_0_74" duration="3" until="19614.0" arrival="19611.0"/>
		<stop busStop="busStop_-29618_0_75" duration="3" until="19627.0" arrival="19624.0"/>
		<stop busStop="busStop_29641_0_158" duration="3" until="19657.0" arrival="19654.0"/>
		<stop busStop="busStop_29581_0_157" duration="3" until="19680.0" arrival="19677.0"/>
		<stop busStop="busStop_29622_0_155" duration="3" until="19759.0" arrival="19756.0"/>
		<stop busStop="busStop_29604_0_146" duration="3" until="19772.0" arrival="19769.0"/>
		<stop busStop="busStop_29604_0_81" duration="3" until="19782.0" arrival="19779.0"/>
		<stop busStop="busStop_29604_0_90" duration="3" until="19800.0" arrival="19797.0"/>
		<stop busStop="busStop_29508_0_1486" duration="3" until="19816.0" arrival="19813.0"/>
		<stop busStop="busStop_29500_0_1899" duration="3" until="19822.0" arrival="19819.0"/>
		<stop busStop="busStop_29478_0_148" duration="3" until="19840.0" arrival="19837.0"/>
		<stop busStop="busStop_29466_0_1731" duration="3" until="19849.0" arrival="19846.0"/>
		<stop busStop="busStop_29443_0_1797" duration="3" until="19868.0" arrival="19865.0"/>
		<stop busStop="busStop_31730_0_150" duration="3" until="19904.0" arrival="19901.0"/>
		<stop busStop="busStop_31186_0_151" duration="3" until="19950.0" arrival="19947.0"/>
		<stop busStop="busStop_29290_0_152" duration="3" until="19961.0" arrival="19958.0"/>
		<stop busStop="busStop_-29302_0_100" duration="3" until="19987.0" arrival="19984.0"/>
		<stop busStop="busStop_29031_0_103" duration="3" until="20044.0" arrival="20041.0"/>
		<stop busStop="busStop_27643_0_104" duration="3" until="20061.0" arrival="20058.0"/>
		<stop busStop="busStop_16997_0_105" duration="3" until="20072.0" arrival="20069.0"/>
		<stop busStop="busStop_17250_0_107" duration="3" until="20100.0" arrival="20097.0"/>
		<stop busStop="busStop_16794_0_108" duration="3" until="20108.0" arrival="20105.0"/>
		<stop busStop="busStop_16789_0_110" duration="3" until="20141.0" arrival="20138.0"/>
		<stop busStop="busStop_17114_0_111" duration="3" until="20155.0" arrival="20152.0"/>
		<stop busStop="busStop_29924_0_112" duration="3" until="20171.0" arrival="20168.0"/>
		<stop busStop="busStop_27303_0_113" duration="3" until="20184.0" arrival="20181.0"/>
		<stop busStop="busStop_-27439_0_115" duration="3" until="20213.0" arrival="20210.0"/>
		<stop busStop="busStop_-30953_0_116" duration="3" until="20225.0" arrival="20222.0"/>
		<stop busStop="busStop_-30953_0_1912" duration="3" until="20240.0" arrival="20237.0"/>
		<stop busStop="busStop_-30953_0_118" duration="3" until="20250.0" arrival="20247.0"/>
		<stop busStop="busStop_-30953_0_1913" duration="3" until="20274.0" arrival="20271.0"/>
		<stop busStop="busStop_gneE4_0_44" duration="3" until="20400.0" arrival="20397.0"/>
		<stop busStop="busStop_30948_0_1914" duration="3" until="20433.0" arrival="20430.0"/>
		<stop busStop="busStop_16751_0_1358" duration="3" until="20617.0" arrival="20614.0"/>
		<stop busStop="busStop_16747_0_1582" duration="3" until="20638.0" arrival="20635.0"/>
		<stop busStop="busStop_16735_0_124" duration="3" until="20666.0" arrival="20663.0"/>
		<stop busStop="busStop_-26890_0_125" duration="3" until="20681.0" arrival="20678.0"/>
		<stop busStop="busStop_-26942_0_127" duration="3" until="20721.0" arrival="20718.0"/>
		<stop busStop="busStop_-26942_0_128" duration="3" until="20739.0" arrival="20736.0"/>
		<stop busStop="busStop_-26959_0_129" duration="3" until="20758.0" arrival="20755.0"/>
		<stop busStop="busStop_-27020_0_130" duration="3" until="20791.0" arrival="20788.0"/>
		<stop busStop="busStop_17296_0_132" duration="3" until="20846.0" arrival="20843.0"/>
		<stop busStop="busStop_16933_0_133" duration="3" until="20877.0" arrival="20874.0"/>
		<stop busStop="busStop_17258_0_134" duration="3" until="20902.0" arrival="20899.0"/>
		<stop busStop="busStop_17116_0_136" duration="3" until="20993.0" arrival="20990.0"/>
		<stop busStop="busStop_17162_0_1487" duration="3" until="21094.0" arrival="21091.0"/>
		<stop busStop="busStop_17160_0_138" duration="3" until="21137.0" arrival="21134.0"/>
		<stop busStop="busStop_16552_0_139" duration="3" until="21189.0" arrival="21186.0"/>
		<stop busStop="busStop_16542_0_140" duration="3" until="21220.0" arrival="21217.0"/>
		<stop busStop="busStop_17166_0_141" duration="3" until="21247.0" arrival="21244.0"/>
		<stop busStop="busStop_17301_0_142" duration="3" until="21300.0" arrival="21297.0"/>
		<stop busStop="busStop_16517_0_143" duration="3" until="21361.0" arrival="21358.0"/>
		<stop busStop="busStop_16513_0_144" duration="3" until="21511.0" arrival="21508.0"/>
		<stop busStop="busStop_16503_0_145" duration="3" until="21600.0" arrival="21597.0"/>
	</trip>
	<trip id="Route1_ALTON_PARK_block101_trip151690020" type="Gillig_102" depart="19860.0" color="1,1,0" departPos="stop">
		<stop busStop="busStop_-9282_0_354" duration="3" until="19860.0" arrival="19857.0"/>
		<stop busStop="busStop_2007_0_505" duration="3" until="20079.0" arrival="20076.0"/>
		<stop busStop="busStop_-78835_0_784" duration="3" until="20244.0" arrival="20241.0"/>
		<stop busStop="busStop_9455_0_284" duration="3" until="20280.0" arrival="20277.0"/>
		<stop busStop="busStop_13630_0_285" duration="3" until="20325.0" arrival="20322.0"/>
		<stop busStop="busStop_-9383_0_286" duration="3" until="20358.0" arrival="20355.0"/>
		<stop busStop="busStop_-9385_0_287" duration="3" until="20373.0" arrival="20370.0"/>
		<stop busStop="busStop_-2074_0_1351" duration="3" until="20400.0" arrival="20397.0"/>
		<stop busStop="busStop_-1489_0_12" duration="3" until="20451.0" arrival="20448.0"/>
		<stop busStop="busStop_gneE48_0_1555" duration="3" until="20506.0" arrival="20503.0"/>
		<stop busStop="busStop_-1510_0_1579" duration="3" until="20521.0" arrival="20518.0"/>
		<stop busStop="busStop_-1524_0_1354" duration="3" until="20563.0" arrival="20560.0"/>
		<stop busStop="busStop_-1540_0_17" duration="3" until="20600.0" arrival="20597.0"/>
		<stop busStop="busStop_-17310_0_742" duration="3" until="20624.0" arrival="20621.0"/>
		<stop busStop="busStop_-17309_0_18" duration="3" until="20663.0" arrival="20660.0"/>
		<stop busStop="busStop_-16503_0_19" duration="3" until="20703.0" arrival="20700.0"/>
		<stop busStop="busStop_-16517_0_1557" duration="3" until="20754.0" arrival="20751.0"/>
		<stop busStop="busStop_-17301_0_1357" duration="3" until="20781.0" arrival="20778.0"/>
		<stop busStop="busStop_-16532_1_21" duration="3" until="20796.0" arrival="20793.0"/>
		<stop busStop="busStop_-16542_0_22" duration="3" until="20830.0" arrival="20827.0"/>
		<stop busStop="busStop_-16560_0_23" duration="3" until="20860.0" arrival="20857.0"/>
		<stop busStop="busStop_-17159_0_24" duration="3" until="20878.0" arrival="20875.0"/>
		<stop busStop="busStop_-17162_0_25" duration="3" until="20900.0" arrival="20897.0"/>
		<stop busStop="busStop_-17163_0_26" duration="3" until="20963.0" arrival="20960.0"/>
		<stop busStop="busStop_-16616_0_27" duration="3" until="20981.0" arrival="20978.0"/>
		<stop busStop="busStop_-16625_0_28" duration="3" until="21000.0" arrival="20997.0"/>
		<stop busStop="busStop_gneE4_0_44" duration="3" until="21300.0" arrival="21297.0"/>
		<stop busStop="busStop_-29660_0_95" duration="3" until="22200.0" arrival="22197.0"/>
	</trip>
	<trip id="Route4_EASTGATE_HAMILTON_PL_block409_trip152324020" type="Gillig_101" depart="21000.0" color="1,1,0" departPos="stop">
		<stop busStop="busStop_30289_0_1878" duration="3" until="21000.0" arrival="20997.0"/>
		<stop busStop="busStop_17238_1_923" duration="3" until="21203.0" arrival="21200.0"/>
		<stop busStop="busStop_17241_1_924" duration="3" until="21276.0" arrival="21273.0"/>
		<stop busStop="busStop_17242_1_925" duration="3" until="21310.0" arrival="21307.0"/>
		<stop busStop="busStop_1650_0_926" duration="3" until="21449.0" arrival="21446.0"/>
		<stop busStop="busStop_1527_0_927" duration="3" until="21484.0" arrival="21481.0"/>
		<stop busStop="busStop_-1521_0_928" duration="3" until="21545.0" arrival="21542.0"/>
		<stop busStop="busStop_-16481_0_930" duration="3" until="21592.0" arrival="21589.0"/>
		<stop busStop="busStop_-16489_0_931" duration="3" until="21627.0" arrival="21624.0"/>
		<stop busStop="busStop_-17308_0_932" duration="3" until="21667.0" arrival="21664.0"/>
		<stop busStop="busStop_-17307_0_933" duration="3" until="21697.0" arrival="21694.0"/>
		<stop busStop="busStop_-16926_0_935" duration="3" until="21854.0" arrival="21851.0"/>
		<stop busStop="busStop_-16591_0_1578" duration="3" until="21929.0" arrival="21926.0"/>
		<stop busStop="busStop_-16936_0_939" duration="3" until="21978.0" arrival="21975.0"/>
		<stop busStop="busStop_-16664_0_1860" duration="3" until="22221.0" arrival="22218.0"/>
		<stop busStop="busStop_-16705_0_1477" duration="3" until="22280.0" arrival="22277.0"/>
		<stop busStop="busStop_-17341_0_946" duration="3" until="22333.0" arrival="22330.0"/>
		<stop busStop="busStop_-30427_0_1919" duration="3" until="22500.0" arrival="22497.0"/>
		<stop busStop="busStop_-31994_0_1820" duration="3" until="22563.0" arrival="22560.0"/>
		<stop busStop="busStop_-16777_0_953" duration="3" until="22788.0" arrival="22785.0"/>
		<stop busStop="busStop_16778_2_954" duration="3" until="22808.0" arrival="22805.0"/>
		<stop busStop="busStop_16769_1_956" duration="3" until="22846.0" arrival="22843.0"/>
		<stop busStop="busStop_16757_0_959" duration="3" until="22897.0" arrival="22894.0"/>
		<stop busStop="busStop_17102_0_960" duration="3" until="22911.0" arrival="22908.0"/>
		<stop busStop="busStop_16749_1_961" duration="3" until="22924.0" arrival="22921.0"/>
		<stop busStop="busStop_16743_1_962" duration="3" until="22939.0" arrival="22936.0"/>
		<stop busStop="busStop_16722_0_963" duration="3" until="22972.0" arrival="22969.0"/>
		<stop busStop="busStop_16710_0_964" duration="3" until="22989.0" arrival="22986.0"/>
		<stop busStop="busStop_16694_0_966" duration="3" until="23025.0" arrival="23022.0"/>
		<stop busStop="busStop_16657_0_967" duration="3" until="23040.0" arrival="23037.0"/>
		<stop busStop="busStop_16654_1_968" duration="3" until="23055.0" arrival="23052.0"/>
		<stop busStop="busStop_16641_1_969" duration="3" until="23073.0" arrival="23070.0"/>
		<stop busStop="busStop_16641_1_970" duration="3" until="23084.0" arrival="23081.0"/>
		<stop busStop="busStop_16634_1_971" duration="3" until="23100.0" arrival="23097.0"/>
		<stop busStop="busStop_16607_0_1911" duration="3" until="23170.0" arrival="23167.0"/>
		<stop busStop="busStop_16599_0_975" duration="3" until="23189.0" arrival="23186.0"/>
		<stop busStop="busStop_17095_0_977" duration="3" until="23319.0" arrival="23316.0"/>
		<stop busStop="busStop_30900_0_978" duration="3" until="23329.0" arrival="23326.0"/>
		<stop busStop="busStop_30905_1_979" duration="3" until="23344.0" arrival="23341.0"/>
		<stop busStop="busStop_30320_1_980" duration="3" until="23362.0" arrival="23359.0"/>
		<stop busStop="busStop_25462_1_981" duration="3" until="23387.0" arrival="23384.0"/>
		<stop busStop="busStop_25459_1_982" duration="3" until="23400.0" arrival="23397.0"/>
		<stop busStop="busStop_25435_0_983" duration="3" until="23425.0" arrival="23422.0"/>
		<stop busStop="busStop_25395_1_984" duration="3" until="23455.0" arrival="23452.0"/>
		<stop busStop="busStop_25366_1_985" duration="3" until="23487.0" arrival="23484.0"/>
		<stop busStop="busStop_25330_1_986" duration="3" until="23512.0" arrival="23509.0"/>
		<stop busStop="busStop_25303_1_987" duration="3" until="23537.0" arrival="23534.0"/>
		<stop busStop="busStop_25277_1_988" duration="3" until="23563.0" arrival="23560.0"/>
		<stop busStop="busStop_25245_1_989" duration="3" until="23588.0" arrival="23585.0"/>
		<stop busStop="busStop_31785_1_990" duration="3" until="23613.0" arrival="23610.0"/>
		<stop busStop="busStop_33031_0_991" duration="3" until="23652.0" arrival="23649.0"/>
		<stop busStop="busStop_24996_1_992" duration="3" until="23721.0" arrival="23718.0"/>
		<stop busStop="busStop_24944_1_993" duration="3" until="23748.0" arrival="23745.0"/>
		<stop busStop="busStop_24944_1_994" duration="3" until="23771.0" arrival="23768.0"/>
		<stop busStop="busStop_24815_0_995" duration="3" until="23824.0" arrival="23821.0"/>
		<stop busStop="busStop_14982_0_407" duration="3" until="23845.0" arrival="23842.0"/>
		<stop busStop="busStop_14983_0_408" duration="3" until="23879.0" arrival="23876.0"/>
		<stop busStop="busStop_9813_0_409" duration="3" until="23925.0" arrival="23922.0"/>
		<stop busStop="busStop_78746_0_412" duration="3" until="23951.0" arrival="23948.0"/>
		<stop busStop="busStop_78746_0_413" duration="3" until="23973.0" arrival="23970.0"/>
		<stop busStop="busStop_9715_0_996" duration="3" until="24003.0" arrival="24000.0"/>
		<stop busStop="busStop_2455_0_997" duration="3" until="24072.0" arrival="24069.0"/>
		<stop busStop="busStop_-2675_1_998" duration="3" until="24091.0" arrival="24088.0"/>
		<stop busStop="busStop_-2710_1_999" duration="3" until="24109.0" arrival="24106.0"/>
		<stop busStop="busStop_72_0_488" duration="3" until="24136.0" arrival="24133.0"/>
		<stop busStop="busStop_38639_0_568" duration="3" until="24196.0" arrival="24193.0"/>
		<stop busStop="busStop_210_1_569" duration="3" until="24221.0" arrival="24218.0"/>
		<stop busStop="busStop_326_1_789" duration="3" until="24244.0" arrival="24241.0"/>
		<stop busStop="busStop_-1489_0_12" duration="3" until="24332.0" arrival="24329.0"/>
		<stop busStop="busStop_-1540_0_17" duration="3" until="24442.0" arrival="24439.0"/>
		<stop busStop="busStop_-17310_0_742" duration="3" until="24458.0" arrival="24455.0"/>
		<stop busStop="busStop_17637_0_806" duration="3" until="24526.0" arrival="24523.0"/>
		<stop busStop="busStop_2467_0_808" duration="3" until="24587.0" arrival="24584.0"/>
		<stop busStop="busStop_9282_0_690" duration="3" until="25200.0" arrival="25197.0"/>
	</trip>
	<trip id="Route1_ALTON_PARK_block102_trip151689020" type="Gillig_103" depart="21060.0" color="1,1,0" departPos="stop">
		<stop busStop="busStop_-9282_0_354" duration="3" until="21060.0" arrival="21057.0"/>
		<stop busStop="busStop_2007_0_505" duration="3" until="21279.0" arrival="21276.0"/>
		<stop busStop="busStop_-78835_0_784" duration="3" until="21444.0" arrival="21441.0"/>
		<stop busStop="busStop_9455_0_284" duration="3" until="21480.0" arrival="21477.0"/>
		<stop busStop="busStop_13630_0_285" duration="3" until="21525.0" arrival="21522.0"/>
		<stop busStop="busStop_-9383_0_286" duration="3" until="21558.0" arrival="21555.0"/>
		<stop busStop="busStop_-9385_0_287" duration="3" until="21573.0" arrival="21570.0"/>
		<stop busStop="busStop_-2074_0_1351" duration="3" until="21600.0" arrival="21597.0"/>
		<stop busStop="busStop_-1489_0_12" duration="3" until="21651.0" arrival="21648.0"/>
		<stop busStop="busStop_gneE48_0_1555" duration="3" until="21706.0" arrival="21703.0"/>
		<stop busStop="busStop_-1510_0_1579" duration="3" until="21721.0" arrival="21718.0"/>
		<stop busStop="busStop_-1524_0_1354" duration="3" until="21763.0" arrival="21760.0"/>
		<stop busStop="busStop_-1540_0_17" duration="3" until="21800.0" arrival="21797.0"/>
		<stop busStop="busStop_-17310_0_742" duration="3" until="21824.0" arrival="21821.0"/>
		<stop busStop="busStop_-17309_0_18" duration="3" until="21863.0" arrival="21860.0"/>
		<stop busStop="busStop_-16503_0_19" duration="3" until="21903.0" arrival="21900.0"/>
		<stop busStop="busStop_-16517_0_1557" duration="3" until="21954.0" arrival="21951.0"/>
		<stop busStop="busStop_-17301_0_1357" duration="3" until="21981.0" arrival="21978.0"/>
		<stop busStop="busStop_-16532_1_21" duration="3" until="21996.0" arrival="21993.0"/>
		<stop busStop="busStop_-16542_0_22" duration="3" until="22030.0" arrival="22027.0"/>
		<stop busStop="busStop_-16560_0_23" duration="3" until="22060.0" arrival="22057.0"/>
		<stop busStop="busStop_-17159_0_24" duration="3" until="22078.0" arrival="22075.0"/>
		<stop busStop="busStop_-17162_0_25" duration="3" until="22100.0" arrival="22097.0"/>
		<stop busStop="busStop_-17163_0_26" duration="3" until="22163.0" arrival="22160.0"/>
		<stop busStop="busStop_-16616_0_27" duration="3" until="22181.0" arrival="22178.0"/>
		<stop busStop="busStop_-16625_0_28" duration="3" until="22200.0" arrival="22197.0"/>
		<stop busStop="busStop_gneE4_0_44" duration="3" until="22500.0" arrival="22497.0"/>
		<stop busStop="busStop_-29660_0_95" duration="3" until="23400.0" arrival="23397.0"/>
	</trip>
	<trip id="Route4_EASTGATE_HAMILTON_PL_block401_trip151781020" type="Gillig_101" depart="21060.0" color="1,1,0" departPos="stop">
		<stop busStop="busStop_-9282_0_354" duration="3" until="21060.0" arrival="21057.0"/>
		<stop busStop="busStop_2007_0_505" duration="3" until="21279.0" arrival="21276.0"/>
		<stop busStop="busStop_-78835_0_784" duration="3" until="21444.0" arrival="21441.0"/>
		<stop busStop="busStop_9455_0_284" duration="3" until="21480.0" arrival="21477.0"/>
		<stop busStop="busStop_13630_0_285" duration="3" until="21525.0" arrival="21522.0"/>
		<stop busStop="busStop_-9383_0_286" duration="3" until="21558.0" arrival="21555.0"/>
		<stop busStop="busStop_-9385_0_287" duration="3" until="21573.0" arrival="21570.0"/>
		<stop busStop="busStop_-2074_0_1351" duration="3" until="21600.0" arrival="21597.0"/>
		<stop busStop="busStop_-1489_0_12" duration="3" until="21640.0" arrival="21637.0"/>
		<stop busStop="busStop_gneE48_0_1555" duration="3" until="21683.0" arrival="21680.0"/>
		<stop busStop="busStop_-1510_0_1579" duration="3" until="21695.0" arrival="21692.0"/>
		<stop busStop="busStop_-1524_0_1354" duration="3" until="21728.0" arrival="21725.0"/>
		<stop busStop="busStop_-1540_0_17" duration="3" until="21757.0" arrival="21754.0"/>
		<stop busStop="busStop_-17310_0_742" duration="3" until="21776.0" arrival="21773.0"/>
		<stop busStop="busStop_17637_0_806" duration="3" until="22010.0" arrival="22007.0"/>
		<stop busStop="busStop_2467_0_1475" duration="3" until="22072.0" arrival="22069.0"/>