<?xml version="1.0" encoding="UTF-8"?>

<!-- generated on 12/16/20 13:43:40 by Eclipse SUMO duarouter Version 1.8.0
<configuration xmlns:xsi="http://www.w3.org/2001/XMLSchema-instance" xsi:noNamespaceSchemaLocation="http://sumo.dlr.de/xsd/duarouterConfiguration.xsd">

    <input>
        <net-file value="Chattanooga_SUMO_Network.net.xml"/>
        <additional-files value="busStopsCARTA.add.xml,vehtype.add.xml"/>
        <route-files value="BusLines.trips.xml,person_trips.xml"/>
    </input>

    <output>
        <output-file value="BUS_Person.rou.xml"/>
        <alternatives-output value="BUS_Person.rou.alt.xml"/>
    </output>

    <processing>
        <unsorted-input value="true"/>
        <ptline-routing value="true"/>
    </processing>

</configuration>
-->

<routes xmlns:xsi="http://www.w3.org/2001/XMLSchema-instance" xsi:noNamespaceSchemaLocation="http://sumo.dlr.de/xsd/routes_file.xsd">
    <vType id="Gillig_102" length="6.00" minGap="3.00" maxSpeed="65.00" guiShape="bus" personCapacity="30" accel="1.3" decel="4.1" sigma="0.5"/>
    <vehicle id="trip151733020_04:41:00" type="Gillig_102" depart="16860.00" departPos="stop" color="yellow" line="Route3_ENTERPRISE_SOUTH_block301_trip151733020">
        <route edges="-9282 2036 2288 2291 2292 2293 2035 1695 -38553 -2007 -78766 -78769 -78768 -78830 -1025 -1024 -694 345 78763 -78833 -13636 9476 9455 13630 13637 -9383 -9385 -9387 -38638 -2074 -2073 64 66 -600 -834 327 62 1472 2075 2076 2077 -1014 -2805 -9455 2639 -78835 -78761 -849 510 511 78829 78768 78769 78766 2007 38553 2008 2009 2010 2011 2012 1430 1309 1308 1303 1276 1271 1267 1265 2370 2371 2083 2372 2373 1242 1622 1241 1240 1612 -1657 -1658 -2367 -2366 -2359 -2084 -1661 -856 352 351 349 -559 -562 -526 -527 -660 -572 -574 -525 -524 53 -642 -582 -583 -584 -1678 -1708 -1707 -1295 1959 1960 1290 1289 2266 2267 1287 1285 1284 1282 1281 1280 -1288 -1293 -1611 -1304 2210"/>
        <stop busStop="busStop_-9282_0_354" arrival="16830.00" duration="30.00" until="16860.00"/>
        <stop busStop="busStop_-2074_0_1351" arrival="17370.00" duration="30.00" until="17400.00"/>
        <stop busStop="busStop_2210_0_1755" arrival="19170.00" duration="30.00" until="19200.00"/>
    </vehicle>
    <vType id="Gillig_105" length="8.00" minGap="3.00" maxSpeed="60.00" guiShape="bus" personCapacity="35" accel="1.4" decel="3.9" sigma="0.5"/>
    <vehicle id="trip152323020_04:41:00" type="Gillig_105" depart="16860.00" departPos="stop" color="yellow" line="Route4_EASTGATE_HAMILTON_PL_block409_trip152323020">
        <route edges="-9282 2036 2288 2291 2292 2293 2035 1695 -38553 -2007 2007 38553 -38553 -2007 -78766 -78769 -78768 -78830 -1025 -1024 -694 345 78763 78836 -78835 -13636 9476 9455 13630 13637 -9383 -9385 -9387 -38638 -2074 -2073 -1480 -1489 gneE48 -1510 -1524 gneE33 -1540 -16484 -17310 -17309 24963 17636 17637 17487 2467 -1535 -1536 -1537 -16485 -16486 -17059 -17061 -17060 -16496 -16500 -16501 -16502 -16506 -16508 -17270 -17269 -16973 -16526 -16528 -17290 -17289 -16534 -17252 -17251 -16540 -16543 -16547 -16553 -16975 -16974 -16561 -16565 -16571 -16572 16574 16570 16932 17054 17055 17096 -17095 -17094 -16159 -16160 -16165 -16161 -16164 -16163 -16162 -16599 -16600 -16607 -16609 -17098 -17097 -16615 -16620 -16634 -16641 -38555 -16654 -16657 -16660 -16670 -16694 -16710 -16717 -16722 -17100 -17099 -16733 -16736 -16737 -16743 -16744 -16749 -17102 -17101 -16757 -17148 -17147 -16759 -16760 -16766 -16769 -16770 -16772 -16773 -16774 -16775 -16778 16777 -16777 16777 16771 16979 16980 -27198 -30359 -31890 -31893 -31912 -31915 -31918 -31921 -31925 -31927 -31931 -31933 -31938 -31937 -30362 -31946 -31945 -27462 -31961 -31960 32037 32038 31986 31988 31990 -31994 31993 31985 -31965 -31963 -31962 31961 30428 30429 30427 30426 30431 32120 32224 32225 16996 17340 17341 16934 38556 17139 16705 16698 16668 16664 16643 17247 17248 16638 16630 16614 16936 16591 38559 16568 16926 17266 17303 17304 16978 17063 17064 17305 17306 17307 17308 16497 16489 16481 1529 1521 -1513 -1517 -1527 -1650 -16951 -16480 -17276 -17275 -17235 -17234 -31291 -31313 -31312 -31315 -31314 -25114 25115 78743 -30289 -30288 30288 30289"/>
        <stop busStop="busStop_-9282_0_354" arrival="16830.00" duration="30.00" until="16860.00"/>
        <stop busStop="busStop_2007_0_505" arrival="17049.00" duration="30.00" until="17079.00"/>
        <stop busStop="busStop_-78835_0_784" arrival="17214.00" duration="30.00" until="17244.00"/>
        <stop busStop="busStop_9455_0_284" arrival="17250.00" duration="30.00" until="17280.00"/>
        <stop busStop="busStop_13630_0_285" arrival="17295.00" duration="30.00" until="17325.00"/>
        <stop busStop="busStop_-9383_0_286" arrival="17328.00" duration="30.00" until="17358.00"/>
        <stop busStop="busStop_-9385_0_287" arrival="17343.00" duration="30.00" until="17373.00"/>
        <stop busStop="busStop_-2074_0_1351" arrival="17370.00" duration="30.00" until="17400.00"/>
        <stop busStop="busStop_-1489_0_12" arrival="17410.00" duration="30.00" until="17440.00"/>
        <stop busStop="busStop_gneE48_0_1555" arrival="17453.00" duration="30.00" until="17483.00"/>
        <stop busStop="busStop_-1510_0_1579" arrival="17465.00" duration="30.00" until="17495.00"/>
        <stop busStop="busStop_-1524_0_1354" arrival="17498.00" duration="30.00" until="17528.00"/>
        <stop busStop="busStop_-1540_0_17" arrival="17527.00" duration="30.00" until="17557.00"/>
        <stop busStop="busStop_-17310_0_742" arrival="17546.00" duration="30.00" until="17576.00"/>
        <stop busStop="busStop_17637_0_806" arrival="17780.00" duration="30.00" until="17810.00"/>
        <stop busStop="busStop_2467_0_1475" arrival="17842.00" duration="30.00" until="17872.00"/>
        <stop busStop="busStop_-1535_0_1474" arrival="17852.00" duration="30.00" until="17882.00"/>
        <stop busStop="busStop_-16485_0_811" arrival="17876.00" duration="30.00" until="17906.00"/>
        <stop busStop="busStop_-16486_0_812" arrival="17895.00" duration="30.00" until="17925.00"/>
        <stop busStop="busStop_-17060_0_813" arrival="17926.00" duration="30.00" until="17956.00"/>
        <stop busStop="busStop_-16500_1_814" arrival="17945.00" duration="30.00" until="17975.00"/>
        <stop busStop="busStop_-16501_0_815" arrival="17959.00" duration="30.00" until="17989.00"/>
        <stop busStop="busStop_-16502_0_816" arrival="17978.00" duration="30.00" until="18008.00"/>
        <stop busStop="busStop_-16506_0_817" arrival="17995.00" duration="30.00" until="18025.00"/>
        <stop busStop="busStop_-16508_0_818" arrival="18014.00" duration="30.00" until="18044.00"/>
        <stop busStop="busStop_-16526_0_820" arrival="18102.00" duration="30.00" until="18132.00"/>
        <stop busStop="busStop_-16528_0_821" arrival="18119.00" duration="30.00" until="18149.00"/>
        <stop busStop="busStop_-17289_0_822" arrival="18138.00" duration="30.00" until="18168.00"/>
        <stop busStop="busStop_-16534_0_823" arrival="18157.00" duration="30.00" until="18187.00"/>
        <stop busStop="busStop_-17251_0_824" arrival="18174.00" duration="30.00" until="18204.00"/>
        <stop busStop="busStop_-16540_0_825" arrival="18193.00" duration="30.00" until="18223.00"/>
        <stop busStop="busStop_-16543_0_826" arrival="18212.00" duration="30.00" until="18242.00"/>
        <stop busStop="busStop_-16547_0_827" arrival="18231.00" duration="30.00" until="18261.00"/>
        <stop busStop="busStop_-16975_1_828" arrival="18255.00" duration="30.00" until="18285.00"/>
        <stop busStop="busStop_-16974_1_829" arrival="18270.00" duration="30.00" until="18300.00"/>
        <stop busStop="busStop_-16561_0_321" arrival="18286.00" duration="30.00" until="18316.00"/>
        <stop busStop="busStop_-16565_0_322" arrival="18304.00" duration="30.00" until="18334.00"/>
        <stop busStop="busStop_-16571_0_830" arrival="18318.00" duration="30.00" until="18348.00"/>
        <stop busStop="busStop_16570_1_831" arrival="18339.00" duration="30.00" until="18369.00"/>
        <stop busStop="busStop_16932_0_832" arrival="18353.00" duration="30.00" until="18383.00"/>
        <stop busStop="busStop_-16160_0_833" arrival="18402.00" duration="30.00" until="18432.00"/>
        <stop busStop="busStop_-16599_0_835" arrival="18484.00" duration="30.00" until="18514.00"/>
        <stop busStop="busStop_-16609_0_836" arrival="18508.00" duration="30.00" until="18538.00"/>
        <stop busStop="busStop_-16615_0_837" arrival="18533.00" duration="30.00" until="18563.00"/>
        <stop busStop="busStop_-16634_0_838" arrival="18547.00" duration="30.00" until="18577.00"/>
        <stop busStop="busStop_-16641_0_839" arrival="18570.00" duration="30.00" until="18600.00"/>
        <stop busStop="busStop_-16641_0_840" arrival="18587.00" duration="30.00" until="18617.00"/>
        <stop busStop="busStop_-38555_0_841" arrival="18604.00" duration="30.00" until="18634.00"/>
        <stop busStop="busStop_-16694_0_844" arrival="18653.00" duration="30.00" until="18683.00"/>
        <stop busStop="busStop_-16710_0_845" arrival="18678.00" duration="30.00" until="18708.00"/>
        <stop busStop="busStop_-16736_0_848" arrival="18715.00" duration="30.00" until="18745.00"/>
        <stop busStop="busStop_-16743_0_849" arrival="18724.00" duration="30.00" until="18754.00"/>
        <stop busStop="busStop_-16743_0_850" arrival="18738.00" duration="30.00" until="18768.00"/>
        <stop busStop="busStop_-16749_0_851" arrival="18753.00" duration="30.00" until="18783.00"/>
        <stop busStop="busStop_-17101_0_852" arrival="18769.00" duration="30.00" until="18799.00"/>
        <stop busStop="busStop_-17147_0_854" arrival="18813.00" duration="30.00" until="18843.00"/>
        <stop busStop="busStop_-16766_0_856" arrival="18839.00" duration="30.00" until="18869.00"/>
        <stop busStop="busStop_-16770_0_857" arrival="18858.00" duration="30.00" until="18888.00"/>
        <stop busStop="busStop_-16772_0_858" arrival="18868.00" duration="30.00" until="18898.00"/>
        <stop busStop="busStop_-16774_0_859" arrival="18877.00" duration="30.00" until="18907.00"/>
        <stop busStop="busStop_16777_0_860" arrival="18902.00" duration="30.00" until="18932.00"/>
        <stop busStop="busStop_-16777_0_861" arrival="18912.00" duration="30.00" until="18942.00"/>
        <stop busStop="busStop_16980_2_1873" arrival="18941.00" duration="30.00" until="18971.00"/>
        <stop busStop="busStop_-31946_0_1849" arrival="18990.00" duration="30.00" until="19020.00"/>
        <stop busStop="busStop_-27462_0_1850" arrival="19007.00" duration="30.00" until="19037.00"/>
        <stop busStop="busStop_-31994_0_1819" arrival="19028.00" duration="30.00" until="19058.00"/>
        <stop busStop="busStop_30426_0_867" arrival="19154.00" duration="30.00" until="19184.00"/>
        <stop busStop="busStop_30431_0_868" arrival="19170.00" duration="30.00" until="19200.00"/>
        <stop busStop="busStop_32225_0_869" arrival="19258.00" duration="30.00" until="19288.00"/>
        <stop busStop="busStop_17341_2_870" arrival="19316.00" duration="30.00" until="19346.00"/>
        <stop busStop="busStop_16934_2_871" arrival="19347.00" duration="30.00" until="19377.00"/>
        <stop busStop="busStop_16705_0_872" arrival="19385.00" duration="30.00" until="19415.00"/>
        <stop busStop="busStop_16664_0_874" arrival="19528.00" duration="30.00" until="19558.00"/>
        <stop busStop="busStop_16591_0_879" arrival="19755.00" duration="30.00" until="19785.00"/>
        <stop busStop="busStop_38559_0_880" arrival="19798.00" duration="30.00" until="19828.00"/>
        <stop busStop="busStop_16568_0_881" arrival="19836.00" duration="30.00" until="19866.00"/>
        <stop busStop="busStop_17307_0_884" arrival="20068.00" duration="30.00" until="20098.00"/>
        <stop busStop="busStop_17308_0_885" arrival="20133.00" duration="30.00" until="20163.00"/>
        <stop busStop="busStop_16497_1_886" arrival="20175.00" duration="30.00" until="20205.00"/>
        <stop busStop="busStop_16489_0_887" arrival="20222.00" duration="30.00" until="20252.00"/>
        <stop busStop="busStop_1521_0_891" arrival="20334.00" duration="30.00" until="20364.00"/>
        <stop busStop="busStop_-1517_0_1875" arrival="20376.00" duration="30.00" until="20406.00"/>
        <stop busStop="busStop_-1527_1_894" arrival="20407.00" duration="30.00" until="20437.00"/>
        <stop busStop="busStop_-16951_1_1485" arrival="20441.00" duration="30.00" until="20471.00"/>
        <stop busStop="busStop_-31312_0_897" arrival="20530.00" duration="30.00" until="20560.00"/>
        <stop busStop="busStop_-31315_0_898" arrival="20557.00" duration="30.00" until="20587.00"/>
        <stop busStop="busStop_30289_0_1876" arrival="20970.00" duration="30.00" until="21000.00"/>
    </vehicle>
    <vType id="Gillig_101" length="8.00" minGap="3.00" maxSpeed="65.00" guiShape="bus" personCapacity="32" accel="1.2" decel="4.0" sigma="0.5"/>
    <vehicle id="trip152320020_04:46:00" type="Gillig_101" depart="17160.00" departPos="stop" color="yellow" line="Route1_ALTON_PARK_block109_trip152320020">
        <route edges="-9282 2036 2288 2291 2292 2293 2035 1695 -38553 -2007 2007 38553 -38553 -2007 -78766 -78769 -78768 -78830 -1025 -1024 -694 345 78763 78836 -78835 -13636 9476 9455 13630 13637 -9383 -9385 -9387 -38638 -2074 -2073 -1480 -1489 gneE48 -1510 -1524 gneE33 -1540 -16484 -17310 -17309 -16503 -16513 -16515 -16517 -17302 -17301 -16532 -17166 -17165 -16542 -16552 -16560 -17160 -17159 -16577 -17162 -17161 -16586 -17274 -17273 -17272 -17271 -16596 -17164 -17163 -16616 -16625 26208 26165 26135 26097 26068 -16624 -17110 -17109 -17261 -17260 -16678 -16684 -17298 -17297 -16716 -16726 -16735 -16919 -16747 -16751 -16754 -27173 -30950 -30949 -30948 gneE2 gneE3 gneE4 gneE5 gneE6 gneE7 gneE8 gneE9 -27388 -27463 -27520 -27592 -29060 -29085 -29140 -29208 -29214 -29235 -29284 -29298 -29326 -29344 -29385 -29418 -29452 -29461 -29489 -29527 -29568 -29576 -29619 -29674 -29696 -29712 -29741 -29764 29763 29925 29669 -29660"/>
        <stop busStop="busStop_-9282_0_354" arrival="17130.00" duration="30.00" until="17160.00"/>
        <stop busStop="busStop_2007_0_505" arrival="17349.00" duration="30.00" until="17379.00"/>
        <stop busStop="busStop_-78835_0_784" arrival="17514.00" duration="30.00" until="17544.00"/>
        <stop busStop="busStop_9455_0_284" arrival="17550.00" duration="30.00" until="17580.00"/>
        <stop busStop="busStop_13630_0_285" arrival="17595.00" duration="30.00" until="17625.00"/>
        <stop busStop="busStop_-9383_0_286" arrival="17628.00" duration="30.00" until="17658.00"/>
        <stop busStop="busStop_-9385_0_287" arrival="17643.00" duration="30.00" until="17673.00"/>
        <stop busStop="busStop_-2074_0_1351" arrival="17670.00" duration="30.00" until="17700.00"/>
        <stop busStop="busStop_-1489_0_12" arrival="17721.00" duration="30.00" until="17751.00"/>
        <stop busStop="busStop_gneE48_0_1555" arrival="17776.00" duration="30.00" until="17806.00"/>
        <stop busStop="busStop_-1510_0_1579" arrival="17791.00" duration="30.00" until="17821.00"/>
        <stop busStop="busStop_-1524_0_1354" arrival="17833.00" duration="30.00" until="17863.00"/>
        <stop busStop="busStop_-1540_0_17" arrival="17870.00" duration="30.00" until="17900.00"/>
        <stop busStop="busStop_-17310_0_742" arrival="17894.00" duration="30.00" until="17924.00"/>
        <stop busStop="busStop_-17309_0_18" arrival="17933.00" duration="30.00" until="17963.00"/>
        <stop busStop="busStop_-16503_0_19" arrival="17973.00" duration="30.00" until="18003.00"/>
        <stop busStop="busStop_-16517_0_1557" arrival="18024.00" duration="30.00" until="18054.00"/>
        <stop busStop="busStop_-17301_0_1357" arrival="18051.00" duration="30.00" until="18081.00"/>
        <stop busStop="busStop_-16532_1_21" arrival="18066.00" duration="30.00" until="18096.00"/>
        <stop busStop="busStop_-16542_0_22" arrival="18100.00" duration="30.00" until="18130.00"/>
        <stop busStop="busStop_-16560_0_23" arrival="18130.00" duration="30.00" until="18160.00"/>
        <stop busStop="busStop_-17159_0_24" arrival="18148.00" duration="30.00" until="18178.00"/>
        <stop busStop="busStop_-17162_0_25" arrival="18170.00" duration="30.00" until="18200.00"/>
        <stop busStop="busStop_-17163_0_26" arrival="18233.00" duration="30.00" until="18263.00"/>
        <stop busStop="busStop_-16616_0_27" arrival="18251.00" duration="30.00" until="18281.00"/>
        <stop busStop="busStop_-16625_0_28" arrival="18270.00" duration="30.00" until="18300.00"/>
        <stop busStop="busStop_gneE4_0_44" arrival="18570.00" duration="30.00" until="18600.00"/>
        <stop busStop="busStop_-29660_0_95" arrival="19470.00" duration="30.00" until="19500.00"/>
    </vehicle>
    <person id="person1519" depart="17503.47" departPos="random">
        <walk edges="15925 15775 15750 15794 15945 15833 15917 15918 15904 15825 15831 15832 15829 15830 15943 15910 15911" arrivalPos="58.15"/>
    </person>
    <person id="person393" depart="17600.43" departPos="random">
        <walk edges="6650 -6650 -6624 6590 -6530 1254 -1253 -1252 -1251 -1249 1247 11201 6468 6474" arrivalPos="138.83"/>
    </person>
    <person id="person733" depart="17665.27" departPos="random">
        <walk edges="38564 -38563 1168 -1171 1172 -1174 1178 -5497 5520 5546 5579 13881 13880 -5606 -5612 -5630 5641 -5640 5637" arrivalPos="5.30"/>
    </person>
    <person id="person123" depart="17721.07" departPos="random">
        <walk edges="9299 1455 -38632 14106 14104 -38631 14103 -38630 9390 9392 13811" arrivalPos="27.54"/>
    </person>
    <person id="person355" depart="17739.76" departPos="random">
        <walk edges="1089 4694 -4698 -4699 -4703 -4702 -4696 4701 4704 4710 4713 4714 4726 4730 4746 8500 5779 5814 -5813 5798" arrivalPos="125.71"/>
    </person>
    <person id="person1055" depart="17853.10" departPos="random">
        <walk edges="-3828 3823 3825 -3831 3832 -3841 3845" arrivalPos="2.64"/>
    </person>
    <person id="person950" depart="17918.02" departPos="random">
        <walk edges="-13207 13197 13196 4110 4113 4123 4127 4141 4148 4158 4164 4168 -13226 -13225 13224 4177 4188" arrivalPos="420.86"/>
    </person>
    <person id="person663" depart="17928.68" departPos="random">
        <walk edges="5370 5369 5316 -5312 5282 13938 5235 13937 5379 5392" arrivalPos="79.91"/>
    </person>
    <person id="person457" depart="17941.66" departPos="random">
        <walk edges="13579 5640 -5668 5672 1683 1684 -1606" arrivalPos="0.11"/>
    </person>
    <person id="person1642" depart="17973.61" departPos="random">
        <walk edges="-17199 17198 16618 16627 16632 -16189 15887 -16636 -17197 17196 16649 38617 -16977 17217 -17216" arrivalPos="15.29"/>
    </person>
    <person id="person1387" depart="17997.20" departPos="random">
        <walk edges="-15494 15493 12099 12098 12228 12227 10263 15496 -15495 15301 -15513 15512 8689 -1816 2192 -2191 -11341 -14256 14255 15467 8703 8712 -8727 12928 12927 15465 15464 10363 10362 12943 12942 -12756 12882 12881 -12291 -12875 12876 -12755 -12754 15622 15621 -8769 -8764 8759 -8754 10340 10341 15522 -15523 -13812 13813 13814 -13817 -13816" arrivalPos="2.96"/>
    </person>
    <person id="person1150" depart="18006.98" departPos="random">
        <walk edges="1669 11487 -15057 -2847 2635 -15058 -15060 -11627 -5672 -5668 5641 -5630 -5612 -5606 -5582" arrivalPos="61.33"/>
    </person>
    <person id="person806" depart="18105.33" departPos="random">
        <walk edges="-12499 12499 -12501 12498 -12504 -12904 -3458 3499 3540 10045 10136 -10137 3546 3533 -12923 12924 -3521 3518 -1054 -1052 -1051 -3463 3462 3454 3448 3425 -3419 3414 3411 -3408 -3401" arrivalPos="164.67"/>
    </person>
    <person id="person1184" depart="18185.92" departPos="random">
        <walk edges="-14653 14656 14659 14662 -14665 -14669 14672 -14673 -11666 11667 -15059 -15060 -11628" arrivalPos="76.38"/>
    </person>
    <person id="person712" depart="18186.04" departPos="random">
        <walk edges="2538 5587 5608 -13580 13579 5640 -5668 5672 1683 1684 -1606" arrivalPos="0.11"/>
    </person>
    <person id="person1056" depart="18186.61" departPos="random">
        <walk edges="3917 3920 -3919 3911 -3915 -3914 -3925" arrivalPos="124.43"/>
    </person>
    <person id="person1078" depart="18330.80" departPos="random">
        <walk edges="94 93 13 1576 1869 265 -13155 -3931 -3918 3906 -3902 -3901 3891 3888 3895 3896 -3894" arrivalPos="8.10"/>
    </person>
    <person id="person1235" depart="18339.32" departPos="random">
        <walk edges="14576 -14575 14477 11673 -11672 14589 -14591 14593 -14596" arrivalPos="19.84"/>
    </person>
    <person id="person530" depart="18400.58" departPos="random">
        <walk edges="78747 -78747 2066 -2067 1186 -1185 2069 38562 -2068 1178 5449 5448" arrivalPos="50.19"/>
    </person>
    <person id="person853" depart="18427.29" departPos="random">
        <walk edges="10131 11876 7808 7817 7821 7827 11873 -11872" arrivalPos="559.40"/>
    </person>
    <person id="person1709" depart="18433.06" departPos="random">
        <walk edges="20894 -22221 -22216 -22215 22247 -16370 16371 16368 16367 -16359 16358 -16357 -22209 22164" arrivalPos="23.41"/>
    </person>
    <person id="person114" depart="18503.27" departPos="random">
        <walk edges="15182 -9340 9341 -38632 14106 14104 -38631 14103 -38630 9390 9392 13811" arrivalPos="28.75"/>
    </person>
    <person id="person278" depart="18515.99" departPos="random">
        <walk edges="-28699 -28687 28672 -28666 -28537 -28535 -28473 28931 -28516 -28546" arrivalPos="24.60"/>
    </person>
    <person id="person752" depart="18535.55" departPos="random">
        <walk edges="-5325 -5323 1160 -38564 -38563 1168 -1171 1172 -1174 1178 -5497 5520 5546 5579 13881 -13882" arrivalPos="64.76"/>
    </person>
    <person id="person1360" depart="18545.86" departPos="random">
        <walk edges="35118 -35118 35120 35904 -35781" arrivalPos="30.54"/>
    </person>
    <person id="person1236" depart="18551.04" departPos="random">
        <walk edges="-14528 14471 -14547 14546 14550 -14549 -14552 14554 14556 14559 -14558 14563 -14562 14462 -14566 14569 -14568 14455 14476 14576 -14575 14477 11673 -11672 14589 -14591 14593 -14596 -14595" arrivalPos="23.95"/>
    </person>
    <person id="person1562" depart="18624.82" departPos="random">
        <walk edges="-16222 -16223 -16176 -16177 -16173 17180 -17120 -16702 16700 16697 17119 -17236 -17237 -26732 -26681 -26606 -30885 -30886 -26450 -26447 31034 -31035 -26243 -26154 -26098 -26033 -25907 -25841 -25748 -25649 31063 31262 -31263 25344 17598" arrivalPos="88.57"/>
    </person>
    <person id="person63" depart="18629.13" departPos="random">
        <walk edges="-24540 -24541 -30767 30766 24549 -24552 28034 28233 28041 28050 28074 28081 28086 28117 28118 -28122 28128 28134 28139 28151 28229 28156 28164 28172 28193 28215 28219" arrivalPos="25.36"/>
    </person>
    <person id="person771" depart="18648.36" departPos="random">
        <walk edges="5520 -5506 5518" arrivalPos="50.96"/>
    </person>
    <person id="person468" depart="18667.39" departPos="random">
        <walk edges="-5640 5640 -5668 5672 1683 1684 1606 1688 1687 311" arrivalPos="2.48"/>
    </person>
    <person id="person972" depart="18691.77" departPos="random">
        <walk edges="-10717 -4178 -4177 13224 13225 -13226 -4168 -4164 -4158 -4148 -4141 -4127 -4123 -4113 -4110 -13196 13213 13208" arrivalPos="4.15"/>
    </person>
    <person id="person1005" depart="18734.20" departPos="random">
        <walk edges="-3975 3975 -3974 -3968 3947 -3930 -3919 3910 3903 3893 3883 3870 -3868 -3863" arrivalPos="32.97"/>
    </person>
    <person id="person820" depart="18778.96" departPos="random">
        <walk edges="12513 -12506 -12505 -12585 -12495 -12517 -12904 -3458 3499 3540 10045 10136 -10137 3546 3533 -12923 12924 -3521 3518 -1054 -1052 -1051" arrivalPos="114.88"/>
    </person>
    <person id="person1112" depart="18878.75" departPos="random">
        <walk edges="14868 -14882 -14883 -2977 -2976 -2972 -2947 -2937" arrivalPos="118.68"/>
    </person>
    <person id="person1782" depart="18879.20" departPos="random">
        <walk edges="-20891 20892 20267 -20896 20894 -22221 -22216 -22215 22247 -16370 16371 16368 16367 -16359 22210 -22054 -22062 -22065 22095 22099" arrivalPos="70.95"/>
    </person>
    <person id="person165" depart="19052.57" departPos="random">
        <walk edges="362 15880 15879 -16956 16955 -17186 17188 17187 -17156 -17155 16950 16949 33128" arrivalPos="2.47"/>
    </person>
    <person id="person1637" depart="19067.95" departPos="random">
        <walk edges="-26943 26943 -16745 16748 -16753 -16968 -16976 -17226 17225 -17337 -17344 17345 17338 -17339 -17203 17202 -17200 -17201 -16755 -16940 -16941 -17216 17217" arrivalPos="286.29"/>
    </person>
    <person id="person1200" depart="19074.79" departPos="random">
        <walk edges="-14500 14499 -14509 14511 -14514 14513 -14517 14519 -14521 -14524 14523 14667 -14685 -14684 14681 14678 14673" arrivalPos="5.48"/>
    </person>
    <person id="person892" depart="19075.03" departPos="random">
        <walk edges="-13200 13199 13213 13196 4110 4113 4123 4127 4141 4148 4158 4164 4168 -13226 -13225 13224 4177 4188 4196 4198 -4203 -4209 -4217 4218 2431 -538" arrivalPos="6.00"/>
    </person>
    <person id="person603" depart="19095.71" departPos="random">
        <walk edges="-5630 5641 -5668 5672 1683 1684 2479 -14494 -14500 14499 -14509 14511 -14514 14513 -14517 14519 -14521 -14524 14523 -14667" arrivalPos="8.66"/>
    </person>
    <person id="person342" depart="19135.93" departPos="random">
        <walk edges="2294 1436 9137 14315 -14316 -9088 9091 -11383 11384 -9079 9090 9109 9122 9129 9145 9152 9169 9211 -14312 14311 -9285" arrivalPos="53.60"/>
    </person>
    <person id="person866" depart="19139.83" departPos="random">
        <walk edges="7921 -7921 7911 7914 -7915 -7896 -7873 -7890 7899 7934 15266 15265 -7995 7993 7983 7978 -7970 7967 7957 7951 7941" arrivalPos="56.99"/>
    </person>
    <person id="person1110" depart="19152.71" departPos="random">
        <walk edges="14884 -14883 -2977 -2976 -2972" arrivalPos="308.37"/>
    </person>
    <person id="person1176" depart="19195.75" departPos="random">
        <walk edges="-14530 -14532 14534 14536 14538 -14541 14542 14543 -14544 14583 -14586 -14587 -11671 1687 -818" arrivalPos="1.82"/>
    </person>
    <person id="person1686" depart="19208.64" departPos="random">
        <walk edges="26368 -16627 -16618 17198 -17199 -16608 15890 -26138 -26289 -26339" arrivalPos="33.33"/>
    </person>
    <person id="person1732" depart="19228.13" departPos="random">
        <walk edges="22500 16377 16376 16366 -16365 16373 -22213 22460 22327 22458 22502 22189 -16361 -16362 22206 22055 -22275 22274 22521 -22520 -22273" arrivalPos="25.43"/>
    </person>
    <person id="person1426" depart="19232.15" departPos="random">
        <walk edges="-609 2466 24851 -31703 31702 25019 25104 25178 25218 25247 25348 33129" arrivalPos="46.21"/>
    </person>
    <person id="person1589" depart="19341.40" departPos="random">
        <walk edges="31351 -31353 31350 31349 31346 31345 16689 -26715 26592 26579 -30885 -30886 -26450 -26447 31034 -31035 -26243 -26154 -26098 -26033 -25907 -25841 -25748 25684 25708 -16567 -25670 -25591" arrivalPos="60.59"/>
    </person>
    <person id="person1475" depart="19371.85" departPos="random">
        <walk edges="27146 -31484 31485 -27116 -31344 31345 16689 -26715 26592 26579 -30885 -30886 -26450 -26447 31034 -31035 -26243 -26154 -26098 -26033 -25907 -25841 -25748 -25649 31063 31262 -31263 25344 30288 30289" arrivalPos="28.72"/>
    </person>
    <person id="person715" depart="19405.96" departPos="random">
        <walk edges="5569 -5580 5582 -5606 -5612 5630" arrivalPos="160.17"/>
    </person>
    <person id="person599" depart="19487.18" departPos="random">
        <walk edges="2065 -1190 20 -817 -818 1687 11671 -14587 -14586 14583 -14544 14543 -14542" arrivalPos="11.71"/>
    </person>
    <person id="person1037" depart="19489.45" departPos="random">
        <walk edges="-13151 13151 3806 3809 3817 3850 3852 -3856 -3855" arrivalPos="107.76"/>
    </person>
    <vType id="Gillig_104" length="9.00" minGap="3.00" maxSpeed="65.00" guiShape="bus" personCapacity="40" accel="1.1" decel="4.3" sigma="0.5"/>
    <vehicle id="trip151740020_05:25:00" type="Gillig_104" depart="19500.00" departPos="stop" color="yellow" line="Route3_3_DOWNTOWN__block301_trip151740020">
        <route edges="-2074"/>
        <stop busStop="busStop_-2074_0_1351" arrival="21870.00" duration="30.00" until="21900.00"/>
    </vehicle>
    <vehicle id="trip152321020_05:25:00" type="Gillig_102" depart="19500.00" departPos="stop" color="yellow" line="Route1_DOWNTOWN_block109_trip152321020">
        <route edges="-29660 -31048 -31047 29683 -29571 -29618 -29642 29641 29581 -29581 -29591 -29633 29622 29604 29508 29500 29478 29466 29443 31729 31730 31186 29290 29274 -29302 29302 29251 29210 29113 29104 29031 27643 16997 16797 17249 17250 16794 16793 16998 16999 16789 17113 17114 27361 29924 27308 27303 -27375 -27439 -30954 -30953 27463 27388 gneE2 gneE3 gneE4 gneE5 gneE6 gneE7 gneE8 gneE9 30948 30949 30950 27173 16754 16751 16747 16919 16735 -26890 -26942 -26959 -27020 17295 17296 16933 17258 17259 17342 17343 17115 17116 16625 16616 17163 17164 16596 17271 17272 17273 17274 16586 17161 17162 16577 17159 17160 16560 16552 16542 17165 17166 16532 17301 17302 16517 16515 16513 16503"/>