<additional>
	<busStop id="busStop_-1489_0_12" lane="-1489_0" startPos="33.25" endPos="43.25" friendlyPos="1"/>
	<busStop id="busStop_-1540_0_17" lane="-1540_0" startPos="61.88" endPos="71.88" friendlyPos="1"/>
	<busStop id="busStop_-17309_0_18" lane="-17309_0" startPos="26.87" endPos="36.87" friendlyPos="1"/>
	<busStop id="busStop_-16503_0_19" lane="-16503_0" startPos="106.62" endPos="116.62" friendlyPos="1"/>
	<busStop id="busStop_-16532_1_21" lane="-16532_1" startPos="27.56" endPos="37.56" friendlyPos="1"/>
	<busStop id="busStop_-16542_0_22" lane="-16542_0" startPos="73.43" endPos="83.43" friendlyPos="1"/>
	<busStop id="busStop_-16560_0_23" lane="-16560_0" startPos="70.55" endPos="80.55" friendlyPos="1"/>
	<busStop id="busStop_-17159_0_24" lane="-17159_0" startPos="43.94" endPos="53.94" friendlyPos="1"/>
	<busStop id="busStop_-17162_0_25" lane="-17162_0" startPos="7.61" endPos="17.61" friendlyPos="1"/>
	<busStop id="busStop_-17163_0_26" lane="-17163_0" startPos="52.89" endPos="62.89" friendlyPos="1"/>
	<busStop id="busStop_-16616_0_27" lane="-16616_0" startPos="64.18" endPos="74.18" friendlyPos="1"/>
	<busStop id="busStop_-16625_0_28" lane="-16625_0" startPos="72.76" endPos="82.76" friendlyPos="1"/>
	<busStop id="busStop_-16735_0_38" lane="-16735_0" startPos="53.74" endPos="63.74" friendlyPos="1"/>
	<busStop id="busStop_-27173_0_41" lane="-27173_0" startPos="85" endPos="95" friendlyPos="1"/>
	<busStop id="busStop_-30948_0_43" lane="-30948_0" startPos="60.84" endPos="70.84" friendlyPos="1"/>
	<busStop id="busStop_gneE4_0_44" lane="gneE4_0" startPos="8.98" endPos="18.98" friendlyPos="1"/>
	<busStop id="busStop_29683_0_72" lane="29683_0" startPos="214.7" endPos="224.7" friendlyPos="1"/>
	<busStop id="busStop_-29618_0_74" lane="-29618_0" startPos="116.92" endPos="126.92" friendlyPos="1"/>
	<busStop id="busStop_-29618_0_75" lane="-29618_0" startPos="261.6" endPos="271.6" friendlyPos="1"/>
	<busStop id="busStop_29604_0_81" lane="29604_0" startPos="84.54" endPos="94.54" friendlyPos="1"/>
	<busStop id="busStop_29604_0_90" lane="29604_0" startPos="193.64" endPos="203.64" friendlyPos="1"/>
	<busStop id="busStop_-29660_0_95" lane="-29660_0" startPos="0" endPos="10" friendlyPos="1"/>
	<busStop id="busStop_-29302_0_100" lane="-29302_0" startPos="130.85" endPos="140.85" friendlyPos="1"/>
	<busStop id="busStop_29031_0_103" lane="29031_0" startPos="14.14" endPos="24.14" friendlyPos="1"/>
	<busStop id="busStop_27643_0_104" lane="27643_0" startPos="159.12" endPos="169.12" friendlyPos="1"/>
	<busStop id="busStop_16997_0_105" lane="16997_0" startPos="77.3" endPos="87.3" friendlyPos="1"/>
	<busStop id="busStop_16797_0_106" lane="16797_0" startPos="96.31" endPos="106.31" friendlyPos="1"/>
	<busStop id="busStop_17250_0_107" lane="17250_0" startPos="43.29" endPos="53.29" friendlyPos="1"/>
	<busStop id="busStop_16794_0_108" lane="16794_0" startPos="53.52" endPos="63.52" friendlyPos="1"/>
	<busStop id="busStop_16789_0_110" lane="16789_0" startPos="133.72" endPos="143.72" friendlyPos="1"/>
	<busStop id="busStop_17114_0_111" lane="17114_0" startPos="96.93" endPos="106.93" friendlyPos="1"/>
	<busStop id="busStop_29924_0_112" lane="29924_0" startPos="46.72" endPos="56.72" friendlyPos="1"/>
	<busStop id="busStop_27303_0_113" lane="27303_0" startPos="19.76" endPos="29.76" friendlyPos="1"/>
	<busStop id="busStop_-27439_0_115" lane="-27439_0" startPos="6.93" endPos="16.93" friendlyPos="1"/>
	<busStop id="busStop_-30953_0_116" lane="-30953_0" startPos="423.49" endPos="433.49" friendlyPos="1"/>
	<busStop id="busStop_-30953_0_118" lane="-30953_0" startPos="299.84" endPos="309.84" friendlyPos="1"/>
	<busStop id="busStop_16735_0_124" lane="16735_0" startPos="52.03" endPos="62.03" friendlyPos="1"/>
	<busStop id="busStop_-26890_0_125" lane="-26890_0" startPos="81.27" endPos="91.27" friendlyPos="1"/>
	<busStop id="busStop_-26942_0_127" lane="-26942_0" startPos="110.33" endPos="120.33" friendlyPos="1"/>
	<busStop id="busStop_-26942_0_128" lane="-26942_0" startPos="216.25" endPos="226.25" friendlyPos="1"/>
	<busStop id="busStop_-26959_0_129" lane="-26959_0" startPos="82.61" endPos="92.61" friendlyPos="1"/>
	<busStop id="busStop_-27020_0_130" lane="-27020_0" startPos="218.46" endPos="228.46" friendlyPos="1"/>
	<busStop id="busStop_17296_0_132" lane="17296_0" startPos="78.35" endPos="88.35" friendlyPos="1"/>
	<busStop id="busStop_16933_0_133" lane="16933_0" startPos="174.62" endPos="184.62" friendlyPos="1"/>
	<busStop id="busStop_17258_0_134" lane="17258_0" startPos="104.86" endPos="114.86" friendlyPos="1"/>
	<busStop id="busStop_17116_0_136" lane="17116_0" startPos="16.68" endPos="26.68" friendlyPos="1"/>
	<busStop id="busStop_17160_0_138" lane="17160_0" startPos="12.67" endPos="22.67" friendlyPos="1"/>
	<busStop id="busStop_16552_0_139" lane="16552_0" startPos="74.56" endPos="84.56" friendlyPos="1"/>
	<busStop id="busStop_16542_0_140" lane="16542_0" startPos="81.17" endPos="91.17" friendlyPos="1"/>
	<busStop id="busStop_17166_0_141" lane="17166_0" startPos="31.15" endPos="41.15" friendlyPos="1"/>
	<busStop id="busStop_17301_0_142" lane="17301_0" startPos="77.98" endPos="87.98" friendlyPos="1"/>
	<busStop id="busStop_16517_0_143" lane="16517_0" startPos="5.53" endPos="15.53" friendlyPos="1"/>
	<busStop id="busStop_16513_0_144" lane="16513_0" startPos="57.82" endPos="67.82" friendlyPos="1"/>
	<busStop id="busStop_16503_0_145" lane="16503_0" startPos="88.65" endPos="98.65" friendlyPos="1"/>
	<busStop id="busStop_29604_0_146" lane="29604_0" startPos="206.86" endPos="216.86" friendlyPos="1"/>
	<busStop id="busStop_29478_0_148" lane="29478_0" startPos="63.57" endPos="73.57" friendlyPos="1"/>
	<busStop id="busStop_31730_0_150" lane="31730_0" startPos="114.08" endPos="124.08" friendlyPos="1"/>
	<busStop id="busStop_31186_0_151" lane="31186_0" startPos="541.02" endPos="551.02" friendlyPos="1"/>
	<busStop id="busStop_29290_0_152" lane="29290_0" startPos="86.82" endPos="96.82" friendlyPos="1"/>
	<busStop id="busStop_29622_0_155" lane="29622_0" startPos="78.56" endPos="88.56" friendlyPos="1"/>
	<busStop id="busStop_29581_0_157" lane="29581_0" startPos="12.58" endPos="22.58" friendlyPos="1"/>
	<busStop id="busStop_29641_0_158" lane="29641_0" startPos="138.77" endPos="148.77" friendlyPos="1"/>
	<busStop id="busStop_-29571_0_161" lane="-29571_0" startPos="80.34" endPos="90.34" friendlyPos="1"/>
	<busStop id="busStop_17310_0_163" lane="17310_0" startPos="83.05" endPos="93.05" friendlyPos="1"/>
	<busStop id="busStop_gneE34_0_164" lane="gneE34_0" startPos="6.54" endPos="16.54" friendlyPos="1"/>
	<busStop id="busStop_1524_0_165" lane="1524_0" startPos="24.06" endPos="34.06" friendlyPos="1"/>
	<busStop id="busStop_1489_0_166" lane="1489_0" startPos="113.38" endPos="123.38" friendlyPos="1"/>
	<busStop id="busStop_1480_0_167" lane="1480_0" startPos="122.19" endPos="132.19" friendlyPos="1"/>
	<busStop id="busStop_64_0_168" lane="64_0" startPos="69.14" endPos="79.14" friendlyPos="1"/>
	<busStop id="busStop_-600_0_169" lane="-600_0" startPos="75.95" endPos="85.95" friendlyPos="1"/>
	<busStop id="busStop_327_0_170" lane="327_0" startPos="13.73" endPos="23.73" friendlyPos="1"/>
	<busStop id="busStop_-2716_0_171" lane="-2716_0" startPos="4.47" endPos="14.47" friendlyPos="1"/>
	<busStop id="busStop_2483_1_172" lane="2483_1" startPos="117.37" endPos="127.37" friendlyPos="1"/>
	<busStop id="busStop_-1481_0_173" lane="-1481_0" startPos="153.01" endPos="163.01" friendlyPos="1"/>
	<busStop id="busStop_-1488_0_175" lane="-1488_0" startPos="133.91" endPos="143.91" friendlyPos="1"/>
	<busStop id="busStop_-1496_0_176" lane="-1496_0" startPos="97.74" endPos="107.74" friendlyPos="1"/>
	<busStop id="busStop_-1502_0_177" lane="-1502_0" startPos="107.69" endPos="117.69" friendlyPos="1"/>
	<busStop id="busStop_-1507_0_178" lane="-1507_0" startPos="191.73" endPos="201.73" friendlyPos="1"/>
	<busStop id="busStop_-1514_0_179" lane="-1514_0" startPos="102.3" endPos="112.3" friendlyPos="1"/>
	<busStop id="busStop_-1979_0_181" lane="-1979_0" startPos="51.84" endPos="61.84" friendlyPos="1"/>
	<busStop id="busStop_-16488_0_183" lane="-16488_0" startPos="111.11" endPos="121.11" friendlyPos="1"/>
	<busStop id="busStop_-16498_0_184" lane="-16498_0" startPos="48.79" endPos="58.79" friendlyPos="1"/>
	<busStop id="busStop_25008_0_185" lane="25008_0" startPos="61.06" endPos="71.06" friendlyPos="1"/>
	<busStop id="busStop_9788_0_188" lane="9788_0" startPos="48.94" endPos="58.94" friendlyPos="1"/>
	<busStop id="busStop_9708_0_189" lane="9708_0" startPos="15.19" endPos="25.19" friendlyPos="1"/>
	<busStop id="busStop_9629_0_190" lane="9629_0" startPos="73.97" endPos="83.97" friendlyPos="1"/>
	<busStop id="busStop_9528_0_191" lane="9528_0" startPos="77.13" endPos="87.13" friendlyPos="1"/>
	<busStop id="busStop_9465_0_192" lane="9465_0" startPos="79.35" endPos="89.35" friendlyPos="1"/>
	<busStop id="busStop_9425_0_193" lane="9425_0" startPos="177.54" endPos="187.54" friendlyPos="1"/>
	<busStop id="busStop_14184_0_194" lane="14184_0" startPos="80.52" endPos="90.52" friendlyPos="1"/>
	<busStop id="busStop_9285_0_195" lane="9285_0" startPos="112.74" endPos="122.74" friendlyPos="1"/>
	<busStop id="busStop_8988_0_211" lane="8988_0" startPos="45.58" endPos="55.58" friendlyPos="1"/>
	<busStop id="busStop_8962_0_212" lane="8962_0" startPos="212.94" endPos="222.94" friendlyPos="1"/>
	<busStop id="busStop_7174_0_215" lane="7174_0" startPos="105.67" endPos="115.67" friendlyPos="1"/>
	<busStop id="busStop_7099_0_216" lane="7099_0" startPos="108.94" endPos="118.94" friendlyPos="1"/>
	<busStop id="busStop_-11176_0_217" lane="-11176_0" startPos="12.63" endPos="22.63" friendlyPos="1"/>
	<busStop id="busStop_9503_0_219" lane="9503_0" startPos="22.29" endPos="32.29" friendlyPos="1"/>
	<busStop id="busStop_-9473_0_220" lane="-9473_0" startPos="1.13" endPos="11.13" friendlyPos="1"/>
	<busStop id="busStop_2113_0_221" lane="2113_0" startPos="66.36" endPos="76.36" friendlyPos="1"/>
	<busStop id="busStop_-1996_0_222" lane="-1996_0" startPos="42.3" endPos="52.3" friendlyPos="1"/>
	<busStop id="busStop_-2195_0_223" lane="-2195_0" startPos="148.15" endPos="158.15" friendlyPos="1"/>
	<busStop id="busStop_-2114_0_225" lane="-2114_0" startPos="466.87" endPos="476.87" friendlyPos="1"/>
	<busStop id="busStop_-1263_0_226" lane="-1263_0" startPos="74.79" endPos="84.79" friendlyPos="1"/>
	<busStop id="busStop_-1270_0_227" lane="-1270_0" startPos="28.51" endPos="38.51" friendlyPos="1"/>
	<busStop id="busStop_-1296_0_228" lane="-1296_0" startPos="141.33" endPos="151.33" friendlyPos="1"/>
	<busStop id="busStop_-1301_0_229" lane="-1301_0" startPos="6.51" endPos="16.51" friendlyPos="1"/>
	<busStop id="busStop_7042_0_232" lane="7042_0" startPos="118.4" endPos="128.4" friendlyPos="1"/>
	<busStop id="busStop_-7049_0_233" lane="-7049_0" startPos="113.64" endPos="123.64" friendlyPos="1"/>
	<busStop id="busStop_-7099_0_234" lane="-7099_0" startPos="111.91" endPos="121.91" friendlyPos="1"/>
	<busStop id="busStop_-7255_0_236" lane="-7255_0" startPos="101.29" endPos="111.29" friendlyPos="1"/>
	<busStop id="busStop_-8835_0_237" lane="-8835_0" startPos="102.02" endPos="112.02" friendlyPos="1"/>
	<busStop id="busStop_-8962_0_238" lane="-8962_0" startPos="202.01" endPos="212.01" friendlyPos="1"/>
	<busStop id="busStop_-9211_0_253" lane="-9211_0" startPos="83.4" endPos="93.4" friendlyPos="1"/>
	<busStop id="busStop_-14311_0_254" lane="-14311_0" startPos="73.21" endPos="83.21" friendlyPos="1"/>
	<busStop id="busStop_-9285_0_255" lane="-9285_0" startPos="114.84" endPos="124.84" friendlyPos="1"/>
	<busStop id="busStop_-14183_0_256" lane="-14183_0" startPos="77.94" endPos="87.94" friendlyPos="1"/>
	<busStop id="busStop_-9425_0_257" lane="-9425_0" startPos="167.6" endPos="177.6" friendlyPos="1"/>
	<busStop id="busStop_-9465_0_258" lane="-9465_0" startPos="67.04" endPos="77.04" friendlyPos="1"/>
	<busStop id="busStop_-9486_0_259" lane="-9486_0" startPos="70.97" endPos="80.97" friendlyPos="1"/>
	<busStop id="busStop_-9528_0_260" lane="-9528_0" startPos="68.31" endPos="78.31" friendlyPos="1"/>
	<busStop id="busStop_-9589_0_261" lane="-9589_0" startPos="98.9" endPos="108.9" friendlyPos="1"/>
	<busStop id="busStop_-9589_0_262" lane="-9589_0" startPos="206.9" endPos="216.9" friendlyPos="1"/>
	<busStop id="busStop_-9666_0_263" lane="-9666_0" startPos="30.28" endPos="40.28" friendlyPos="1"/>
	<busStop id="busStop_-9748_0_264" lane="-9748_0" startPos="38.39" endPos="48.39" friendlyPos="1"/>
	<busStop id="busStop_-24816_0_266" lane="-24816_0" startPos="32.75" endPos="42.75" friendlyPos="1"/>
	<busStop id="busStop_17076_1_269" lane="17076_1" startPos="31.62" endPos="41.62" friendlyPos="1"/>
	<busStop id="busStop_16492_0_270" lane="16492_0" startPos="143" endPos="153" friendlyPos="1"/>
	<busStop id="busStop_17077_0_271" lane="17077_0" startPos="50.37" endPos="60.37" friendlyPos="1"/>
	<busStop id="busStop_17078_1_272" lane="17078_1" startPos="56.67" endPos="66.67" friendlyPos="1"/>
	<busStop id="busStop_1979_0_273" lane="1979_0" startPos="71.96" endPos="81.96" friendlyPos="1"/>
	<busStop id="busStop_2220_0_274" lane="2220_0" startPos="178.09" endPos="188.09" friendlyPos="1"/>
	<busStop id="busStop_1519_0_275" lane="1519_0" startPos="98.85" endPos="108.85" friendlyPos="1"/>
	<busStop id="busStop_1514_0_276" lane="1514_0" startPos="85.63" endPos="95.63" friendlyPos="1"/>
	<busStop id="busStop_1507_0_277" lane="1507_0" startPos="210.31" endPos="220.31" friendlyPos="1"/>
	<busStop id="busStop_1502_0_278" lane="1502_0" startPos="115.4" endPos="125.4" friendlyPos="1"/>
	<busStop id="busStop_1496_1_279" lane="1496_1" startPos="109.32" endPos="119.32" friendlyPos="1"/>
	<busStop id="busStop_2004_0_280" lane="2004_0" startPos="50.15" endPos="60.15" friendlyPos="1"/>
	<busStop id="busStop_1488_0_281" lane="1488_0" startPos="81.44" endPos="91.44" friendlyPos="1"/>
	<busStop id="busStop_2542_0_282" lane="2542_0" startPos="96.16" endPos="106.16" friendlyPos="1"/>
	<busStop id="busStop_9455_0_284" lane="9455_0" startPos="109.35" endPos="119.35" friendlyPos="1"/>
	<busStop id="busStop_13630_0_285" lane="13630_0" startPos="247.02" endPos="257.02" friendlyPos="1"/>
	<busStop id="busStop_-9383_0_286" lane="-9383_0" startPos="59.33" endPos="69.33" friendlyPos="1"/>
	<busStop id="busStop_-9385_0_287" lane="-9385_0" startPos="60.7" endPos="70.7" friendlyPos="1"/>
	<busStop id="busStop_11176_0_288" lane="11176_0" startPos="112.57" endPos="122.57" friendlyPos="1"/>
	<busStop id="busStop_-11176_0_289" lane="-11176_0" startPos="104.65" endPos="114.65" friendlyPos="1"/>
	<busStop id="busStop_-7042_0_290" lane="-7042_0" startPos="110.82" endPos="120.82" friendlyPos="1"/>
	<busStop id="busStop_-14249_0_291" lane="-14249_0" startPos="47.86" endPos="57.86" friendlyPos="1"/>
	<busStop id="busStop_-7275_0_294" lane="-7275_0" startPos="111.97" endPos="121.97" friendlyPos="1"/>
	<busStop id="busStop_1319_0_295" lane="1319_0" startPos="47.96" endPos="57.96" friendlyPos="1"/>
	<busStop id="busStop_1318_0_296" lane="1318_0" startPos="82.03" endPos="92.03" friendlyPos="1"/>
	<busStop id="busStop_1310_0_297" lane="1310_0" startPos="0" endPos="10" friendlyPos="1"/>
	<busStop id="busStop_1310_0_298" lane="1310_0" startPos="106.28" endPos="116.28" friendlyPos="1"/>
	<busStop id="busStop_1613_0_299" lane="1613_0" startPos="253.57" endPos="263.57" friendlyPos="1"/>
	<busStop id="busStop_1296_0_302" lane="1296_0" startPos="133.28" endPos="143.28" friendlyPos="1"/>
	<busStop id="busStop_1283_0_303" lane="1283_0" startPos="70.67" endPos="80.67" friendlyPos="1"/>
	<busStop id="busStop_2095_0_304" lane="2095_0" startPos="19.88" endPos="29.88" friendlyPos="1"/>
	<busStop id="busStop_1256_0_305" lane="1256_0" startPos="301.98" endPos="311.98" friendlyPos="1"/>
	<busStop id="busStop_1254_0_306" lane="1254_0" startPos="82.47" endPos="92.47" friendlyPos="1"/>
	<busStop id="busStop_1252_0_307" lane="1252_0" startPos="164.9" endPos="174.9" friendlyPos="1"/>
	<busStop id="busStop_1249_0_308" lane="1249_0" startPos="33.56" endPos="43.56" friendlyPos="1"/>
	<busStop id="busStop_1247_0_309" lane="1247_0" startPos="77.94" endPos="87.94" friendlyPos="1"/>
	<busStop id="busStop_1244_0_310" lane="1244_0" startPos="461.52" endPos="471.52" friendlyPos="1"/>
	<busStop id="busStop_9441_0_311" lane="9441_0" startPos="50.59" endPos="60.59" friendlyPos="1"/>
	<busStop id="busStop_-17075_0_312" lane="-17075_0" startPos="69.19" endPos="79.19" friendlyPos="1"/>
	<busStop id="busStop_-17073_1_313" lane="-17073_1" startPos="15.78" endPos="25.78" friendlyPos="1"/>
	<busStop id="busStop_-25211_0_315" lane="-25211_0" startPos="73.86" endPos="83.86" friendlyPos="1"/>
	<busStop id="busStop_-25278_0_316" lane="-25278_0" startPos="77.73" endPos="87.73" friendlyPos="1"/>
	<busStop id="busStop_25376_0_318" lane="25376_0" startPos="7.06" endPos="17.06" friendlyPos="1"/>
	<busStop id="busStop_-25483_1_319" lane="-25483_1" startPos="74.46" endPos="84.46" friendlyPos="1"/>
	<busStop id="busStop_-31558_1_320" lane="-31558_1" startPos="33.98" endPos="43.98" friendlyPos="1"/>
	<busStop id="busStop_-16561_0_321" lane="-16561_0" startPos="133.89" endPos="143.89" friendlyPos="1"/>
	<busStop id="busStop_-16565_0_322" lane="-16565_0" startPos="125.57" endPos="135.57" friendlyPos="1"/>
	<busStop id="busStop_16579_0_323" lane="16579_0" startPos="90.73" endPos="100.73" friendlyPos="1"/>
	<busStop id="busStop_16947_0_324" lane="16947_0" startPos="57.02" endPos="67.02" friendlyPos="1"/>
	<busStop id="busStop_16545_0_325" lane="16545_0" startPos="14.56" endPos="24.56" friendlyPos="1"/>
	<busStop id="busStop_16539_0_326" lane="16539_0" startPos="82.72" endPos="92.72" friendlyPos="1"/>
	<busStop id="busStop_16536_1_327" lane="16536_1" startPos="81.59" endPos="91.59" friendlyPos="1"/>
	<busStop id="busStop_17070_0_329" lane="17070_0" startPos="137.01" endPos="147.01" friendlyPos="1"/>
	<busStop id="busStop_16510_0_330" lane="16510_0" startPos="87.84" endPos="97.84" friendlyPos="1"/>
	<busStop id="busStop_1538_0_333" lane="1538_0" startPos="181.73" endPos="191.73" friendlyPos="1"/>
	<busStop id="busStop_2001_0_334" lane="2001_0" startPos="97.6" endPos="107.6" friendlyPos="1"/>
	<busStop id="busStop_1999_0_335" lane="1999_0" startPos="34.62" endPos="44.62" friendlyPos="1"/>
	<busStop id="busStop_2000_0_336" lane="2000_0" startPos="96.41" endPos="106.41" friendlyPos="1"/>
	<busStop id="busStop_1485_0_337" lane="1485_0" startPos="112.35" endPos="122.35" friendlyPos="1"/>
	<busStop id="busStop_1478_0_338" lane="1478_0" startPos="99.47" endPos="109.47" friendlyPos="1"/>
	<busStop id="busStop_1445_0_340" lane="1445_0" startPos="0" endPos="10" friendlyPos="1"/>
	<busStop id="busStop_1441_0_342" lane="1441_0" startPos="71.79" endPos="81.79" friendlyPos="1"/>
	<busStop id="busStop_1436_0_344" lane="1436_0" startPos="163.67" endPos="173.67" friendlyPos="1"/>
	<busStop id="busStop_1426_0_346" lane="1426_0" startPos="0" endPos="10" friendlyPos="1"/>
	<busStop id="busStop_1425_0_347" lane="1425_0" startPos="116.28" endPos="126.28" friendlyPos="1"/>
	<busStop id="busStop_2099_0_348" lane="2099_0" startPos="150.35" endPos="160.35" friendlyPos="1"/>
	<busStop id="busStop_-31666_1_349" lane="-31666_1" startPos="30.18" endPos="40.18" friendlyPos="1"/>
	<busStop id="busStop_-7190_0_351" lane="-7190_0" startPos="3.18" endPos="13.18" friendlyPos="1"/>
	<busStop id="busStop_-7173_0_352" lane="-7173_0" startPos="1.82" endPos="11.82" friendlyPos="1"/>
	<busStop id="busStop_-7123_0_353" lane="-7123_0" startPos="9.78" endPos="19.78" friendlyPos="1"/>
	<busStop id="busStop_-9282_0_354" lane="-9282_0" startPos="189.97" endPos="199.97" friendlyPos="1"/>
	<busStop id="busStop_-1692_0_355" lane="-1692_0" startPos="44.2" endPos="54.2" friendlyPos="1"/>
	<busStop id="busStop_-1692_0_356" lane="-1692_0" startPos="149.08" endPos="159.08" friendlyPos="1"/>
	<busStop id="busStop_-1621_0_357" lane="-1621_0" startPos="469.68" endPos="479.68" friendlyPos="1"/>
	<busStop id="busStop_-1604_0_358" lane="-1604_0" startPos="312.91" endPos="322.91" friendlyPos="1"/>
	<busStop id="busStop_-1515_1_359" lane="-1515_1" startPos="284.52" endPos="294.52" friendlyPos="1"/>
	<busStop id="busStop_-8893_0_360" lane="-8893_0" startPos="29.56" endPos="39.56" friendlyPos="1"/>
	<busStop id="busStop_-1426_0_361" lane="-1426_0" startPos="1.62" endPos="11.62" friendlyPos="1"/>
	<busStop id="busStop_-1614_0_362" lane="-1614_0" startPos="95.75" endPos="105.75" friendlyPos="1"/>
	<busStop id="busStop_-2294_0_363" lane="-2294_0" startPos="140.43" endPos="150.43" friendlyPos="1"/>
	<busStop id="busStop_-1436_0_364" lane="-1436_0" startPos="166.42" endPos="176.42" friendlyPos="1"/>
	<busStop id="busStop_-1438_0_365" lane="-1438_0" startPos="147.42" endPos="157.42" friendlyPos="1"/>
	<busStop id="busStop_-1450_0_367" lane="-1450_0" startPos="82.91" endPos="92.91" friendlyPos="1"/>
	<busStop id="busStop_-1457_0_368" lane="-1457_0" startPos="104.83" endPos="114.83" friendlyPos="1"/>
	<busStop id="busStop_-1464_0_369" lane="-1464_0" startPos="102.55" endPos="112.55" friendlyPos="1"/>
	<busStop id="busStop_-1470_0_370" lane="-1470_0" startPos="39.25" endPos="49.25" friendlyPos="1"/>
	<busStop id="busStop_1999_0_371" lane="1999_0" startPos="7.01" endPos="17.01" friendlyPos="1"/>
	<busStop id="busStop_-2002_0_372" lane="-2002_0" startPos="165.43" endPos="175.43" friendlyPos="1"/>
	<busStop id="busStop_-1538_0_374" lane="-1538_0" startPos="164.45" endPos="174.45" friendlyPos="1"/>
	<busStop id="busStop_-17067_0_375" lane="-17067_0" startPos="25.21" endPos="35.21" friendlyPos="1"/>
	<busStop id="busStop_-16507_0_376" lane="-16507_0" startPos="259.5" endPos="269.5" friendlyPos="1"/>
	<busStop id="busStop_-17070_0_377" lane="-17070_0" startPos="61.71" endPos="71.71" friendlyPos="1"/>
	<busStop id="busStop_-17069_0_378" lane="-17069_0" startPos="36.64" endPos="46.64" friendlyPos="1"/>
	<busStop id="busStop_-16530_0_379" lane="-16530_0" startPos="69.08" endPos="79.08" friendlyPos="1"/>
	<busStop id="busStop_-16536_0_380" lane="-16536_0" startPos="69.55" endPos="79.55" friendlyPos="1"/>
	<busStop id="busStop_-16539_0_381" lane="-16539_0" startPos="69.7" endPos="79.7" friendlyPos="1"/>
	<busStop id="busStop_-16545_0_382" lane="-16545_0" startPos="73.74" endPos="83.74" friendlyPos="1"/>
	<busStop id="busStop_16947_0_384" lane="16947_0" startPos="12.01" endPos="22.01" friendlyPos="1"/>
	<busStop id="busStop_25844_0_386" lane="25844_0" startPos="105.13" endPos="115.13" friendlyPos="1"/>
	<busStop id="busStop_25808_0_387" lane="25808_0" startPos="101.69" endPos="111.69" friendlyPos="1"/>
	<busStop id="busStop_25758_0_388" lane="25758_0" startPos="120.36" endPos="130.36" friendlyPos="1"/>
	<busStop id="busStop_25715_0_389" lane="25715_0" startPos="131.21" endPos="141.21" friendlyPos="1"/>
	<busStop id="busStop_25678_0_390" lane="25678_0" startPos="32.1" endPos="42.1" friendlyPos="1"/>
	<busStop id="busStop_25615_0_391" lane="25615_0" startPos="62.99" endPos="72.99" friendlyPos="1"/>
	<busStop id="busStop_31559_0_392" lane="31559_0" startPos="37.32" endPos="47.32" friendlyPos="1"/>
	<busStop id="busStop_31667_0_393" lane="31667_0" startPos="33.98" endPos="43.98" friendlyPos="1"/>
	<busStop id="busStop_25376_0_394" lane="25376_0" startPos="71.33" endPos="81.33" friendlyPos="1"/>
	<busStop id="busStop_30895_0_395" lane="30895_0" startPos="9.38" endPos="19.38" friendlyPos="1"/>
	<busStop id="busStop_25278_0_396" lane="25278_0" startPos="74.34" endPos="84.34" friendlyPos="1"/>
	<busStop id="busStop_30395_0_397" lane="30395_0" startPos="15.89" endPos="25.89" friendlyPos="1"/>
	<busStop id="busStop_17074_1_398" lane="17074_1" startPos="82.57" endPos="92.57" friendlyPos="1"/>
	<busStop id="busStop_16504_0_399" lane="16504_0" startPos="103.82" endPos="113.82" friendlyPos="1"/>
	<busStop id="busStop_-9853_0_400" lane="-9853_0" startPos="170.56" endPos="180.56" friendlyPos="1"/>
	<busStop id="busStop_-9689_0_402" lane="-9689_0" startPos="14.69" endPos="24.69" friendlyPos="1"/>
	<busStop id="busStop_-9732_0_403" lane="-9732_0" startPos="9.32" endPos="19.32" friendlyPos="1"/>
	<busStop id="busStop_-14173_0_404" lane="-14173_0" startPos="40.89" endPos="50.89" friendlyPos="1"/>
	<busStop id="busStop_-11237_0_405" lane="-11237_0" startPos="109.99" endPos="119.99" friendlyPos="1"/>
	<busStop id="busStop_-9910_0_406" lane="-9910_0" startPos="75.29" endPos="85.29" friendlyPos="1"/>
	<busStop id="busStop_14982_0_407" lane="14982_0" startPos="35.19" endPos="45.19" friendlyPos="1"/>
	<busStop id="busStop_14983_0_408" lane="14983_0" startPos="128.78" endPos="138.78" friendlyPos="1"/>
	<busStop id="busStop_9813_0_409" lane="9813_0" startPos="99.68" endPos="109.68" friendlyPos="1"/>
	<busStop id="busStop_-9843_0_410" lane="-9843_0" startPos="72.98" endPos="82.98" friendlyPos="1"/>
	<busStop id="busStop_-15053_0_411" lane="-15053_0" startPos="98.32" endPos="108.32" friendlyPos="1"/>
	<busStop id="busStop_78746_0_412" lane="78746_0" startPos="2.09" endPos="12.09" friendlyPos="1"/>
	<busStop id="busStop_78746_0_413" lane="78746_0" startPos="114.38" endPos="124.38" friendlyPos="1"/>
	<busStop id="busStop_2460_0_414" lane="2460_0" startPos="92.98" endPos="102.98" friendlyPos="1"/>
	<busStop id="busStop_2456_0_415" lane="2456_0" startPos="118.64" endPos="128.64" friendlyPos="1"/>
	<busStop id="busStop_11240_0_417" lane="11240_0" startPos="133.29" endPos="143.29" friendlyPos="1"/>
	<busStop id="busStop_-11239_0_418" lane="-11239_0" startPos="67.59" endPos="77.59" friendlyPos="1"/>
	<busStop id="busStop_-11239_0_419" lane="-11239_0" startPos="197.94" endPos="207.94" friendlyPos="1"/>
	<busStop id="busStop_-960_0_423" lane="-960_0" startPos="18.52" endPos="28.52" friendlyPos="1"/>
	<busStop id="busStop_-961_0_424" lane="-961_0" startPos="11.73" endPos="21.73" friendlyPos="1"/>
	<busStop id="busStop_-962_0_425" lane="-962_0" startPos="2.88" endPos="12.88" friendlyPos="1"/>
	<busStop id="busStop_-16529_0_428" lane="-16529_0" startPos="85.47" endPos="95.47" friendlyPos="1"/>
	<busStop id="busStop_-16535_0_429" lane="-16535_0" startPos="81.36" endPos="91.36" friendlyPos="1"/>
	<busStop id="busStop_-17280_0_430" lane="-17280_0" startPos="67.09" endPos="77.09" friendlyPos="1"/>
	<busStop id="busStop_-16593_0_431" lane="-16593_0" startPos="165.02" endPos="175.02" friendlyPos="1"/>
	<busStop id="busStop_-16601_0_432" lane="-16601_0" startPos="88.88" endPos="98.88" friendlyPos="1"/>
	<busStop id="busStop_-16624_0_433" lane="-16624_0" startPos="210.66" endPos="220.66" friendlyPos="1"/>
	<busStop id="busStop_-17109_0_434" lane="-17109_0" startPos="11.33" endPos="21.33" friendlyPos="1"/>
	<busStop id="busStop_-16678_0_435" lane="-16678_0" startPos="119.66" endPos="129.66" friendlyPos="1"/>
	<busStop id="busStop_-17298_0_436" lane="-17298_0" startPos="47.68" endPos="57.68" friendlyPos="1"/>
	<busStop id="busStop_-17297_0_437" lane="-17297_0" startPos="59.59" endPos="69.59" friendlyPos="1"/>
	<busStop id="busStop_-27388_0_439" lane="-27388_0" startPos="142.76" endPos="152.76" friendlyPos="1"/>
	<busStop id="busStop_-27530_0_440" lane="-27530_0" startPos="137.71" endPos="147.71" friendlyPos="1"/>
	<busStop id="busStop_-27608_0_441" lane="-27608_0" startPos="181.56" endPos="191.56" friendlyPos="1"/>
	<busStop id="busStop_-27658_0_442" lane="-27658_0" startPos="62.41" endPos="72.41" friendlyPos="1"/>
	<busStop id="busStop_-29136_0_443" lane="-29136_0" startPos="142.34" endPos="152.34" friendlyPos="1"/>
	<busStop id="busStop_-29199_0_444" lane="-29199_0" startPos="141.44" endPos="151.44" friendlyPos="1"/>
	<busStop id="busStop_-29272_0_445" lane="-29272_0" startPos="173.72" endPos="183.72" friendlyPos="1"/>
	<busStop id="busStop_-29345_0_446" lane="-29345_0" startPos="179.24" endPos="189.24" friendlyPos="1"/>
	<busStop id="busStop_-29381_0_447" lane="-29381_0" startPos="98.98" endPos="108.98" friendlyPos="1"/>
	<busStop id="busStop_-29407_0_448" lane="-29407_0" startPos="89.83" endPos="99.83" friendlyPos="1"/>
	<busStop id="busStop_30965_0_449" lane="30965_0" startPos="6.68" endPos="16.68" friendlyPos="1"/>
	<busStop id="busStop_-29611_0_450" lane="-29611_0" startPos="36.09" endPos="46.09" friendlyPos="1"/>
	<busStop id="busStop_-29679_0_451" lane="-29679_0" startPos="123.87" endPos="133.87" friendlyPos="1"/>
	<busStop id="busStop_29676_0_452" lane="29676_0" startPos="54.24" endPos="64.24" friendlyPos="1"/>
	<busStop id="busStop_-29737_0_453" lane="-29737_0" startPos="151.35" endPos="161.35" friendlyPos="1"/>
	<busStop id="busStop_-31400_0_454" lane="-31400_0" startPos="33.85" endPos="43.85" friendlyPos="1"/>
	<busStop id="busStop_17298_0_472" lane="17298_0" startPos="70.72" endPos="80.72" friendlyPos="1"/>
	<busStop id="busStop_17261_0_473" lane="17261_0" startPos="130.48" endPos="140.48" friendlyPos="1"/>
	<busStop id="busStop_17110_0_474" lane="17110_0" startPos="76.76" endPos="86.76" friendlyPos="1"/>
	<busStop id="busStop_16624_0_475" lane="16624_0" startPos="199.84" endPos="209.84" friendlyPos="1"/>
	<busStop id="busStop_16563_0_476" lane="16563_0" startPos="26.75" endPos="36.75" friendlyPos="1"/>
	<busStop id="busStop_17280_0_477" lane="17280_0" startPos="81.63" endPos="91.63" friendlyPos="1"/>
	<busStop id="busStop_16544_0_478" lane="16544_0" startPos="76.82" endPos="86.82" friendlyPos="1"/>
	<busStop id="busStop_16538_0_479" lane="16538_0" startPos="74.7" endPos="84.7" friendlyPos="1"/>
	<busStop id="busStop_16535_0_480" lane="16535_0" startPos="76.19" endPos="86.19" friendlyPos="1"/>
	<busStop id="busStop_16529_0_481" lane="16529_0" startPos="84.84" endPos="94.84" friendlyPos="1"/>
	<busStop id="busStop_17158_0_482" lane="17158_0" startPos="103.61" endPos="113.61" friendlyPos="1"/>
	<busStop id="busStop_16512_0_483" lane="16512_0" startPos="204.86" endPos="214.86" friendlyPos="1"/>
	<busStop id="busStop_gneE46_0_484" lane="gneE46_0" startPos="104.44" endPos="114.44" friendlyPos="1"/>
	<busStop id="busStop_73_1_487" lane="73_1" startPos="16.98" endPos="26.98" friendlyPos="1"/>