<additional>
  <edgeData id="msmid" freq="3600" file="EdgeMean.xml" />
</additional>