<additional>
  <edgeData id="edgebased" freq="3600" file="EdgeData.xml" />
</additional>
