<additional>
  <edgeData id="edgebased" file="EdgeData.xml" />
</additional>