<additional>
	<vType id="Gillig_101" accel="1.2" decel="4.0" sigma="0.5" length="8" minGap="3" maxSpeed="65" personCapacity="32" guiShape="bus"/>
	<vType id="Gillig_102" accel="1.3" decel="4.1" sigma="0.5" length="6" minGap="3" maxSpeed="65" personCapacity="30" guiShape="bus"/>
	<vType id="Gillig_103" accel="1.2" decel="4.8" sigma="0.5" length="7" minGap="3" maxSpeed="60" personCapacity="34" guiShape="bus"/>
	<vType id="Gillig_104" accel="1.1" decel="4.3" sigma="0.5" length="9" minGap="3" maxSpeed="65" personCapacity="40" guiShape="bus"/>
	<vType id="Gillig_105" accel="1.4" decel="3.9" sigma="0.5" length="8" minGap="3" maxSpeed="60" personCapacity="35" guiShape="bus"/>
</additional>