<additional>
  <vType id="BUS" accel="2.6" decel="4.5" sigma="0" length="8" minGap="3" maxSpeed="50" personCapacity="30" guiShape="bus"/>
</additional>